Using: /usr/class/ee/synopsys/hspice/F-2011.09-SP2/hspice/linux/hspice array_leakage_power.hsp
 ****** HSPICE -- F-2011.09-SP2 32-BIT (Feb 27 2012) linux ******               
  Copyright (C) 2011 Synopsys, Inc. All Rights Reserved.                        
  Unpublished-rights reserved under US copyright laws.
  This program is protected by law and is subject to the
  terms and conditions of the license agreement from Synopsys.
  Use of this program is your acceptance to be bound by the
  license agreement. HSPICE is the trademark of Synopsys, Inc.
  Input File: array_leakage_power.hsp                                           
  Command line options: array_leakage_power.hsp
 lic:  
 lic: FLEXlm: v10.8 
 lic: USER:   veharvey             HOSTNAME: myth16 
 lic: HOSTID: 001ec92f9f2b         PID:      9550 
 lic: Using FLEXlm license file: 
 lic: 27000@cadlic0.stanford.edu 
 lic: Checkout 1 hspice 
 lic: License/Maintenance for hspice will expire on 16-nov-2013/2013.03 
 lic: 2(in_use)/100(total) FLOATING license(s) on SERVER cadlic0.stanford.edu 
 lic:   
 Init: read install configuration file: /usr/class/ee/synopsys/hspice/F-2011.09-SP2/hspice/meta.cfg

 **warning**  runlvl smaller than 5, reset to 5  when accurate turned on
 scientific notation:
 a=10**-18  f=10**-15  p=10**-12  n=10**-9  u=10**-6
 m=10**-3   k=10**3    x=10**6    g=10**9 

 **warning**  runlvl smaller than 5, reset to 5  when accurate turned on
1****** HSPICE -- F-2011.09-SP2 32-BIT (Feb 27 2012) linux ******               
 ******  
 part 2

  ******  circuit name directory
 circuit number to circuit name directory
   number circuitname                     definition         multiplier
        0 main circuit
        1 xi0.                            array_blocked_wordline_4
                                                                 1.00 
        2 xclk_gen.                       clk_gen            1.00 
        3 xa0_gen.                        a0_gen             1.00 
        4 xa255_gen.                      a255_gen           1.00 
        5 xi0.xmctr.                      mc                 1.00 
        6 xi0.xmcmr.                      mc               254.00 
        7 xi0.xmcbr.                      mc                 1.00 
        8 xi0.xmctb3dum.                  mc                63.00 
        9 xi0.xmcmb3dum.                  mc                16.00k
       10 xi0.xmcbb3dum.                  mc                63.00 
       11 xi0.xmcbb2dum.                  mc                64.00 
       12 xi0.xmctb2dum.                  mc                64.00 
       13 xi0.xmcmb2dum.                  mc                16.26k
       14 xi0.xmctb1dum.                  mc                64.00 
       15 xi0.xmcbb0dum.                  mc                63.00 
       16 xi0.xmcbl.                      mc                 1.00 
       17 xi0.xmcml.                      mc               254.00 
       18 xi0.xmcmb0dum.                  mc                16.00k
       19 xi0.xmcmb1dum.                  mc                16.26k
       20 xi0.xmcbb1dum.                  mc                64.00 
       21 xi0.xmctb0dum.                  mc                63.00 
       22 xi0.xmctl.                      mc                 1.00 
       23 xi0.xwriter.                    write              1.00 
       24 xi0.xwriteb3dum.                write             63.00 
       25 xi0.xwriteb1dum.                write             64.00 
       26 xi0.xwriteb2dum.                write             64.00 
       27 xi0.xwriteb0dum.                write             63.00 
       28 xi0.xwritel.                    write              1.00 
       29 xclk_gen.xgen.                  signal_gen         1.00 
       30 xa0_gen.xgen.                   signal_gen         1.00 
       31 xa255_gen.xgen.                 signal_gen         1.00 
       32 xi0.xwriter.xu0.                inv_pcell_0        1.00 
       33 xi0.xwriter.xu2.                inv_pcell_1        1.00 
       34 xi0.xwriter.xu1.                inv_pcell_1        1.00 
       35 xi0.xwriteb3dum.xu0.            inv_pcell_0       63.00 
       36 xi0.xwriteb3dum.xu2.            inv_pcell_1       63.00 
       37 xi0.xwriteb3dum.xu1.            inv_pcell_1       63.00 
       38 xi0.xwriteb1dum.xu0.            inv_pcell_0       64.00 
       39 xi0.xwriteb1dum.xu2.            inv_pcell_1       64.00 
       40 xi0.xwriteb1dum.xu1.            inv_pcell_1       64.00 
       41 xi0.xwriteb2dum.xu0.            inv_pcell_0       64.00 
       42 xi0.xwriteb2dum.xu2.            inv_pcell_1       64.00 
       43 xi0.xwriteb2dum.xu1.            inv_pcell_1       64.00 
       44 xi0.xwriteb0dum.xu0.            inv_pcell_0       63.00 
       45 xi0.xwriteb0dum.xu2.            inv_pcell_1       63.00 
       46 xi0.xwriteb0dum.xu1.            inv_pcell_1       63.00 
       47 xi0.xwritel.xu0.                inv_pcell_0        1.00 
       48 xi0.xwritel.xu2.                inv_pcell_1        1.00 
       49 xi0.xwritel.xu1.                inv_pcell_1        1.00 
       50 xclk_gen.xgen.x_0.              inv_chain_stimulus
                                                                 1.00 
       51 xa0_gen.xgen.x_0.               inv_chain_stimulus
                                                                 1.00 
       52 xa255_gen.xgen.x_0.             inv_chain_stimulus
                                                                 1.00 
       53 xclk_gen.xgen.x_0.x_0.          inv_stimulus       1.00 
       54 xclk_gen.xgen.x_0.x_1.          inv_stimulus       4.00 
       55 xclk_gen.xgen.x_0.x_2.          inv_stimulus      16.00 
       56 xclk_gen.xgen.x_0.x_3.          inv_stimulus      64.00 
       57 xa0_gen.xgen.x_0.x_0.           inv_stimulus       1.00 
       58 xa0_gen.xgen.x_0.x_1.           inv_stimulus       4.00 
       59 xa0_gen.xgen.x_0.x_2.           inv_stimulus      16.00 
       60 xa0_gen.xgen.x_0.x_3.           inv_stimulus      64.00 
       61 xa255_gen.xgen.x_0.x_0.         inv_stimulus       1.00 
       62 xa255_gen.xgen.x_0.x_1.         inv_stimulus       4.00 
       63 xa255_gen.xgen.x_0.x_2.         inv_stimulus      16.00 
       64 xa255_gen.xgen.x_0.x_3.         inv_stimulus      64.00 


 circuit parameter definitions
  parameter          =  value 

     0:supply                                                  = 700.0000m      
     0:tcyc                                                    =   1.0000n      
     0:trf                                                     =  50.0000p      
     0:blpcwidth                                               =  40.0000       
     0:wrenpwvdd                                               =  48.0000       
     0:wrenpwwl                                                =  48.0000       
     0:vdd_wr_value                                            = 500.0000m      
     0:write_core_power                                        =   0.           
     0:vcell_power                                             =   0.           
     0:mem_core_power                                          =   0.           
    53:wp                                                      =  24.0000       
    53:lp                                                      =   2.0000       
    53:wn                                                      =   8.0000       
    53:ln                                                      =   2.0000       
    54:wp                                                      =  24.0000       
    54:lp                                                      =   2.0000       
    54:wn                                                      =   8.0000       
    54:ln                                                      =   2.0000       
    55:wp                                                      =  24.0000       
    55:lp                                                      =   2.0000       
    55:wn                                                      =   8.0000       
    55:ln                                                      =   2.0000       
    56:wp                                                      =  24.0000       
    56:lp                                                      =   2.0000       
    56:wn                                                      =   8.0000       
    56:ln                                                      =   2.0000       
    57:wp                                                      =  24.0000       
    57:lp                                                      =   2.0000       
    57:wn                                                      =   8.0000       
    57:ln                                                      =   2.0000       
    58:wp                                                      =  24.0000       
    58:lp                                                      =   2.0000       
    58:wn                                                      =   8.0000       
    58:ln                                                      =   2.0000       
    59:wp                                                      =  24.0000       
    59:lp                                                      =   2.0000       
    59:wn                                                      =   8.0000       
    59:ln                                                      =   2.0000       
    60:wp                                                      =  24.0000       
    60:lp                                                      =   2.0000       
    60:wn                                                      =   8.0000       
    60:ln                                                      =   2.0000       
    61:wp                                                      =  24.0000       
    61:lp                                                      =   2.0000       
    61:wn                                                      =   8.0000       
    61:ln                                                      =   2.0000       
    62:wp                                                      =  24.0000       
    62:lp                                                      =   2.0000       
    62:wn                                                      =   8.0000       
    62:ln                                                      =   2.0000       
    63:wp                                                      =  24.0000       
    63:lp                                                      =   2.0000       
    63:wn                                                      =   8.0000       
    63:ln                                                      =   2.0000       
    64:wp                                                      =  24.0000       
    64:lp                                                      =   2.0000       
    64:wn                                                      =   8.0000       
    64:ln                                                      =   2.0000       




 constants  - tnom         kt           vt           gapsi        ni
            298.15000    4.1163e-21    25.69184m     1.11562    1.2565e+16 
  **warning** (/usr/class/ee313/ee313_spice_header.h:18) Both nodes of element vgnd are connected together; Line ignored.
  **info** (./stimulus.sp:38) DC voltage reset to initial transient source value              in source        2:vsrc                new dc=  0.0000D+00
 ** warning** associated with encrypted blocks were suppressed

1****** HSPICE -- F-2011.09-SP2 32-BIT (Feb 27 2012) linux ******               
 ******  
 part 2

  ******  circuit element summary tnom=  25.000 temp=  25.000 *****


 **** capacitors
  
  
                                                                      
 element name        8:c2         8:c1         9:c2         9:c1      
 node1               1:net0207    1:net0206    1:net0207    1:net0206 
 node2               0:0          0:0          0:0          0:0       
 model                                                                
 cap eff             5.5440f      5.5440f      1.4080p      1.4080p   
 tc1                 0.           0.           0.           0.        
 tc2                 0.           0.           0.           0.        
 scale               1.0000       1.0000       1.0000       1.0000    
 ic                  0.           0.           0.           0.        
 m                  63.0000      63.0000      16.0000k     16.0000k   
 w                   0.           0.           0.           0.        
 l                   0.           0.           0.           0.        
 temp               25.0000      25.0000      25.0000      25.0000    
  
  
                                                                      
 element name       10:c2        10:c1        11:c2        11:c1      
 node1               1:net0207    1:net0206    1:net0163    1:net0162 
 node2               0:0          0:0          0:0          0:0       
 model                                                                
 cap eff             5.5440f      5.5440f      5.6320f      5.6320f   
 tc1                 0.           0.           0.           0.        
 tc2                 0.           0.           0.           0.        
 scale               1.0000       1.0000       1.0000       1.0000    
 ic                  0.           0.           0.           0.        
 m                  63.0000      63.0000      64.0000      64.0000    
 w                   0.           0.           0.           0.        
 l                   0.           0.           0.           0.        
 temp               25.0000      25.0000      25.0000      25.0000    
  
  
                                                                      
 element name       12:c2        12:c1        13:c2        13:c1      
 node1               1:net0163    1:net0162    1:net0163    1:net0162 
 node2               0:0          0:0          0:0          0:0       
 model                                                                
 cap eff             5.6320f      5.6320f      1.4309p      1.4309p   
 tc1                 0.           0.           0.           0.        
 tc2                 0.           0.           0.           0.        
 scale               1.0000       1.0000       1.0000       1.0000    
 ic                  0.           0.           0.           0.        
 m                  64.0000      64.0000      16.2600k     16.2600k   
 w                   0.           0.           0.           0.        
 l                   0.           0.           0.           0.        
 temp               25.0000      25.0000      25.0000      25.0000    
  
  
                                                                      
 element name       14:c2        14:c1        15:c2        15:c1      
 node1               1:net0180    1:net0136    1:net0234    1:net0233 
 node2               0:0          0:0          0:0          0:0       
 model                                                                
 cap eff             5.6320f      5.6320f      5.5440f      5.5440f   
 tc1                 0.           0.           0.           0.        
 tc2                 0.           0.           0.           0.        
 scale               1.0000       1.0000       1.0000       1.0000    
 ic                  0.           0.           0.           0.        
 m                  64.0000      64.0000      63.0000      63.0000    
 w                   0.           0.           0.           0.        
 l                   0.           0.           0.           0.        
 temp               25.0000      25.0000      25.0000      25.0000    
  
  
                                                                      
 element name       18:c2        18:c1        19:c2        19:c1      
 node1               1:net0234    1:net0233    1:net0180    1:net0136 
 node2               0:0          0:0          0:0          0:0       
 model                                                                
 cap eff             1.4080p      1.4080p      1.4309p      1.4309p   
 tc1                 0.           0.           0.           0.        
 tc2                 0.           0.           0.           0.        
 scale               1.0000       1.0000       1.0000       1.0000    
 ic                  0.           0.           0.           0.        
 m                  16.0000k     16.0000k     16.2600k     16.2600k   
 w                   0.           0.           0.           0.        
 l                   0.           0.           0.           0.        
 temp               25.0000      25.0000      25.0000      25.0000    
  
  
                                                                      
 element name       20:c2        20:c1        21:c2        21:c1      
 node1               1:net0180    1:net0136    1:net0234    1:net0233 
 node2               0:0          0:0          0:0          0:0       
 model                                                                
 cap eff             5.6320f      5.6320f      5.5440f      5.5440f   
 tc1                 0.           0.           0.           0.        
 tc2                 0.           0.           0.           0.        
 scale               1.0000       1.0000       1.0000       1.0000    
 ic                  0.           0.           0.           0.        
 m                  64.0000      64.0000      63.0000      63.0000    
 w                   0.           0.           0.           0.        
 l                   0.           0.           0.           0.        
 temp               25.0000      25.0000      25.0000      25.0000    


 **** voltage-controlled voltage sources
      name        +             -          dimension  function  scale
       29:e_0            29:net_3           0:0              1      poly       1.    
       30:e_0            30:net_3           0:0              1      poly       1.    
       31:e_0            31:net_3           0:0              1      poly       1.    


 **** current-controlled current sources
      name        +             -          dimension  function  multiplier
       29:f_0            29:net_4           0:0              1      poly       1.    
       29:f_1            29:net_4           0:0              1      poly       1.    
       30:f_0            30:net_4           0:0              1      poly       1.    
       30:f_1            30:net_4           0:0              1      poly       1.    
       31:f_0            31:net_4           0:0              1      poly       1.    
       31:f_1            31:net_4           0:0              1      poly       1.    


 **** independent sources

     name         node1        node2      dc volt    ac mag    ac phase    type
  v_supply  vdd               0                  700.0000m    0.         0.      dc   
  v_supply1  vdd!              0                  700.0000m    0.         0.      dc   
  vvcell  vcell             0                  600.0000m    0.         0.      dc   
 xclk_gen.vsrc xclk_gen.src               0                    0.         0.         0.      pulse
             initial value     0.     
             pulsed value.   700.0000m
             delay time...   500.0000p
             risetime.....    50.0000p
             falltime.....    50.0000p
             width........   450.0000p
             period.......     1.0000n

 xa0_gen.vsrc xa0_gen.src               0                    0.         0.         0.      pulse
             initial value     0.     
             pulsed value.   700.0000m
             delay time...   375.0000p
             risetime.....    50.0000p
             falltime.....    50.0000p
             width........   950.0000p
             period.......     2.0000n

 xa255_gen.vsrc xa255_gen.src               0                    0.         0.         0.      pulse
             initial value     0.     
             pulsed value.   700.0000m
             delay time...     1.3750n
             risetime.....    50.0000p
             falltime.....    50.0000p
             width........   950.0000p
             period.......     2.0000n

 xclk_gen.xgen.v_monitor xclk_gen.xgen.net_4             0                  700.0000m    0.         0.      dc   
 xclk_gen.xgen.v_sense xclk_gen.xgen.net_3             ck                   0.         0.         0.      dc   
 xa0_gen.xgen.v_monitor xa0_gen.xgen.net_4             0                  700.0000m    0.         0.      dc   
 xa0_gen.xgen.v_sense xa0_gen.xgen.net_3             a0                   0.         0.         0.      dc   
 xa255_gen.xgen.v_monitor xa255_gen.xgen.net_4             0                  700.0000m    0.         0.      dc   
 xa255_gen.xgen.v_sense xa255_gen.xgen.net_3             a255                 0.         0.         0.      dc   
 xclk_gen.xgen.x_0.x_0.vstimulus_supply xclk_gen.xgen.x_0.x_0.vdd_stimulus      0                  700.0000m    0.         0.      dc   
 xclk_gen.xgen.x_0.x_1.vstimulus_supply xclk_gen.xgen.x_0.x_1.vdd_stimulus      0                  700.0000m    0.         0.      dc   
 xclk_gen.xgen.x_0.x_2.vstimulus_supply xclk_gen.xgen.x_0.x_2.vdd_stimulus      0                  700.0000m    0.         0.      dc   
 xclk_gen.xgen.x_0.x_3.vstimulus_supply xclk_gen.xgen.x_0.x_3.vdd_stimulus      0                  700.0000m    0.         0.      dc   
 xa0_gen.xgen.x_0.x_0.vstimulus_supply xa0_gen.xgen.x_0.x_0.vdd_stimulus      0                  700.0000m    0.         0.      dc   
 xa0_gen.xgen.x_0.x_1.vstimulus_supply xa0_gen.xgen.x_0.x_1.vdd_stimulus      0                  700.0000m    0.         0.      dc   
 xa0_gen.xgen.x_0.x_2.vstimulus_supply xa0_gen.xgen.x_0.x_2.vdd_stimulus      0                  700.0000m    0.         0.      dc   
 xa0_gen.xgen.x_0.x_3.vstimulus_supply xa0_gen.xgen.x_0.x_3.vdd_stimulus      0                  700.0000m    0.         0.      dc   
 xa255_gen.xgen.x_0.x_0.vstimulus_supply xa255_gen.xgen.x_0.x_0.vdd_stimulus      0                  700.0000m    0.         0.      dc   
 xa255_gen.xgen.x_0.x_1.vstimulus_supply xa255_gen.xgen.x_0.x_1.vdd_stimulus      0                  700.0000m    0.         0.      dc   
 xa255_gen.xgen.x_0.x_2.vstimulus_supply xa255_gen.xgen.x_0.x_2.vdd_stimulus      0                  700.0000m    0.         0.      dc   
 xa255_gen.xgen.x_0.x_3.vstimulus_supply xa255_gen.xgen.x_0.x_3.vdd_stimulus      0                  700.0000m    0.         0.      dc   


 **** mosfets


 **** BSIM4 Model (Level 54)
  
  
                                                              
 element name        5:m5       5:m4       5:m1       5:m0    
 drain               5:bit      5:bit_b    0:0        0:0     
 gate                5:bit_b    5:bit      0:0        0:0     
 source              0:0        0:0        5:bit_b    5:bit   
 bulk                0:0        0:0        0:0        0:0     
 model               0:nmos     0:nmos     0:nmos     0:nmos  
 w eff             122.0000n  122.0000n   78.0000n   78.0000n 
 l eff              29.0000n   29.0000n   29.0000n   29.0000n 
 rd eff              0.         0.         0.         0.      
 rs eff              0.         0.         0.         0.      
 cdsat              11.4887a   11.4887a    7.8700a    7.8700a 
 cssat              11.4887a   11.4887a    7.8700a    7.8700a 
 capbd             178.5462a  178.5462a  133.6681a  133.6681a 
 capbs             152.1990a  152.1990a  116.1033a  116.1033a 
 temp               25.0000    25.0000    25.0000    25.0000  
 aic                                                          
 nf                  1.0000     1.0000     1.0000     1.0000  
 min                 0.         0.         0.         0.      
 rbdb               15.0000    15.0000    15.0000    15.0000  
 rbsb               15.0000    15.0000    15.0000    15.0000  
 rbpb                5.0000     5.0000     5.0000     5.0000  
 rbps               15.0000    15.0000    15.0000    15.0000  
 rbpd               15.0000    15.0000    15.0000    15.0000  
 trnqsmod            0.         0.         0.         0.      
 acnqsmod            0.         0.         0.         0.      
 rbodymod            1.0000     1.0000     1.0000     1.0000  
 rgatemod            1.0000     1.0000     1.0000     1.0000  
 geomod              0.         0.         0.         0.      
 rgeomod             0.         0.         0.         0.      
 delvto              0.         0.         0.         0.      
 mulu0               1.0000     1.0000     1.0000     1.0000  
 delk1               0.         0.         0.         0.      
 delnfct             0.         0.         0.         0.      
 deltox              0.         0.         0.         0.      
 sa                  0.         0.         0.         0.      
 sb                  0.         0.         0.         0.      
 sd                  0.         0.         0.         0.      
 saeff               0.         0.         0.         0.      
 sbeff               0.         0.         0.         0.      
  
  
                                                              
 element name        5:m2       5:m3       6:m5       6:m4    
 drain               5:bit_b    5:bit      6:bit      6:bit_b 
 gate                5:bit      5:bit_b    6:bit_b    6:bit   
 source              0:vcell    0:vcell    0:0        0:0     
 bulk                0:vdd!     0:vdd!     0:0        0:0     
 model               0:pmos     0:pmos     0:nmos     0:nmos  
 w eff              78.0000n   78.0000n   30.9880u   30.9880u 
 l eff              29.0000n   29.0000n   29.0000n   29.0000n 
 rd eff              0.         0.         0.         0.      
 rs eff              0.         0.         0.         0.      
 cdsat               7.8700a    7.8700a    2.9181f    2.9181f 
 cssat               7.8700a    7.8700a    2.9181f    2.9181f 
 capbd             133.6681a  133.6681a  178.5462a  178.5462a 
 capbs             116.1033a  116.1033a  152.1990a  152.1990a 
 temp               25.0000    25.0000    25.0000    25.0000  
 aic                                                          
 nf                  1.0000     1.0000     1.0000     1.0000  
 min                 0.         0.         0.         0.      
 rbdb               15.0000    15.0000    15.0000    15.0000  
 rbsb               15.0000    15.0000    15.0000    15.0000  
 rbpb                5.0000     5.0000     5.0000     5.0000  
 rbps               15.0000    15.0000    15.0000    15.0000  
 rbpd               15.0000    15.0000    15.0000    15.0000  
 trnqsmod            0.         0.         0.         0.      
 acnqsmod            0.         0.         0.         0.      
 rbodymod            1.0000     1.0000     1.0000     1.0000  
 rgatemod            1.0000     1.0000     1.0000     1.0000  
 geomod              0.         0.         0.         0.      
 rgeomod             0.         0.         0.         0.      
 delvto              0.         0.         0.         0.      
 mulu0               1.0000     1.0000     1.0000     1.0000  
 delk1               0.         0.         0.         0.      
 delnfct             0.         0.         0.         0.      
 deltox              0.         0.         0.         0.      
 sa                  0.         0.         0.         0.      
 sb                  0.         0.         0.         0.      
 sd                  0.         0.         0.         0.      
 saeff               0.         0.         0.         0.      
 sbeff               0.         0.         0.         0.      
  
  
                                                              
 element name        6:m1       6:m0       6:m2       6:m3    
 drain               0:0        0:0        6:bit_b    6:bit   
 gate                0:0        0:0        6:bit      6:bit_b 
 source              6:bit_b    6:bit      0:vcell    0:vcell 
 bulk                0:0        0:0        0:vdd!     0:vdd!  
 model               0:nmos     0:nmos     0:pmos     0:pmos  
 w eff              19.8120u   19.8120u   19.8120u   19.8120u 
 l eff              29.0000n   29.0000n   29.0000n   29.0000n 
 rd eff              0.         0.         0.         0.      
 rs eff              0.         0.         0.         0.      
 cdsat               1.9990f    1.9990f    1.9990f    1.9990f 
 cssat               1.9990f    1.9990f    1.9990f    1.9990f 
 capbd             133.6681a  133.6681a  133.6681a  133.6681a 
 capbs             116.1033a  116.1033a  116.1033a  116.1033a 
 temp               25.0000    25.0000    25.0000    25.0000  
 aic                                                          
 nf                  1.0000     1.0000     1.0000     1.0000  
 min                 0.         0.         0.         0.      
 rbdb               15.0000    15.0000    15.0000    15.0000  
 rbsb               15.0000    15.0000    15.0000    15.0000  
 rbpb                5.0000     5.0000     5.0000     5.0000  
 rbps               15.0000    15.0000    15.0000    15.0000  
 rbpd               15.0000    15.0000    15.0000    15.0000  
 trnqsmod            0.         0.         0.         0.      
 acnqsmod            0.         0.         0.         0.      
 rbodymod            1.0000     1.0000     1.0000     1.0000  
 rgatemod            1.0000     1.0000     1.0000     1.0000  
 geomod              0.         0.         0.         0.      
 rgeomod             0.         0.         0.         0.      
 delvto              0.         0.         0.         0.      
 mulu0               1.0000     1.0000     1.0000     1.0000  
 delk1               0.         0.         0.         0.      
 delnfct             0.         0.         0.         0.      
 deltox              0.         0.         0.         0.      
 sa                  0.         0.         0.         0.      
 sb                  0.         0.         0.         0.      
 sd                  0.         0.         0.         0.      
 saeff               0.         0.         0.         0.      
 sbeff               0.         0.         0.         0.      
  
  
                                                              
 element name        7:m5       7:m4       7:m1       7:m0    
 drain               7:bit      7:bit_b    0:0        0:0     
 gate                7:bit_b    7:bit      0:0        0:0     
 source              0:0        0:0        7:bit_b    7:bit   
 bulk                0:0        0:0        0:0        0:0     
 model               0:nmos     0:nmos     0:nmos     0:nmos  
 w eff             122.0000n  122.0000n   78.0000n   78.0000n 
 l eff              29.0000n   29.0000n   29.0000n   29.0000n 
 rd eff              0.         0.         0.         0.      
 rs eff              0.         0.         0.         0.      
 cdsat              11.4887a   11.4887a    7.8700a    7.8700a 
 cssat              11.4887a   11.4887a    7.8700a    7.8700a 
 capbd             178.5462a  178.5462a  133.6681a  133.6681a 
 capbs             152.1990a  152.1990a  116.1033a  116.1033a 
 temp               25.0000    25.0000    25.0000    25.0000  
 aic                                                          
 nf                  1.0000     1.0000     1.0000     1.0000  
 min                 0.         0.         0.         0.      
 rbdb               15.0000    15.0000    15.0000    15.0000  
 rbsb               15.0000    15.0000    15.0000    15.0000  
 rbpb                5.0000     5.0000     5.0000     5.0000  
 rbps               15.0000    15.0000    15.0000    15.0000  
 rbpd               15.0000    15.0000    15.0000    15.0000  
 trnqsmod            0.         0.         0.         0.      
 acnqsmod            0.         0.         0.         0.      
 rbodymod            1.0000     1.0000     1.0000     1.0000  
 rgatemod            1.0000     1.0000     1.0000     1.0000  
 geomod              0.         0.         0.         0.      
 rgeomod             0.         0.         0.         0.      
 delvto              0.         0.         0.         0.      
 mulu0               1.0000     1.0000     1.0000     1.0000  
 delk1               0.         0.         0.         0.      
 delnfct             0.         0.         0.         0.      
 deltox              0.         0.         0.         0.      
 sa                  0.         0.         0.         0.      
 sb                  0.         0.         0.         0.      
 sd                  0.         0.         0.         0.      
 saeff               0.         0.         0.         0.      
 sbeff               0.         0.         0.         0.      
  
  
                                                              
 element name        7:m2       7:m3       8:m5       8:m4    
 drain               7:bit_b    7:bit      8:bit      8:bit_b 
 gate                7:bit      7:bit_b    8:bit_b    8:bit   
 source              0:vcell    0:vcell    0:0        0:0     
 bulk                0:vdd!     0:vdd!     0:0        0:0     
 model               0:pmos     0:pmos     0:nmos     0:nmos  
 w eff              78.0000n   78.0000n    7.6860u    7.6860u 
 l eff              29.0000n   29.0000n   29.0000n   29.0000n 
 rd eff              0.         0.         0.         0.      
 rs eff              0.         0.         0.         0.      
 cdsat               7.8700a    7.8700a  723.7858a  723.7858a 
 cssat               7.8700a    7.8700a  723.7858a  723.7858a 
 capbd             133.6681a  133.6681a  178.5462a  178.5462a 
 capbs             116.1033a  116.1033a  152.1990a  152.1990a 
 temp               25.0000    25.0000    25.0000    25.0000  
 aic                                                          
 nf                  1.0000     1.0000     1.0000     1.0000  
 min                 0.         0.         0.         0.      
 rbdb               15.0000    15.0000    15.0000    15.0000  
 rbsb               15.0000    15.0000    15.0000    15.0000  
 rbpb                5.0000     5.0000     5.0000     5.0000  
 rbps               15.0000    15.0000    15.0000    15.0000  
 rbpd               15.0000    15.0000    15.0000    15.0000  
 trnqsmod            0.         0.         0.         0.      
 acnqsmod            0.         0.         0.         0.      
 rbodymod            1.0000     1.0000     1.0000     1.0000  
 rgatemod            1.0000     1.0000     1.0000     1.0000  
 geomod              0.         0.         0.         0.      
 rgeomod             0.         0.         0.         0.      
 delvto              0.         0.         0.         0.      
 mulu0               1.0000     1.0000     1.0000     1.0000  
 delk1               0.         0.         0.         0.      
 delnfct             0.         0.         0.         0.      
 deltox              0.         0.         0.         0.      
 sa                  0.         0.         0.         0.      
 sb                  0.         0.         0.         0.      
 sd                  0.         0.         0.         0.      
 saeff               0.         0.         0.         0.      
 sbeff               0.         0.         0.         0.      
  
  
                                                                  
 element name        8:m1         8:m0         8:m2       8:m3    
 drain               1:net0206    1:net0207    8:bit_b    8:bit   
 gate                0:0          0:0          8:bit      8:bit_b 
 source              8:bit_b      8:bit        0:vcell    0:vcell 
 bulk                0:0          0:0          0:vdd!     0:vdd!  
 model               0:nmos       0:nmos       0:pmos     0:pmos  
 w eff               4.9140u      4.9140u      4.9140u    4.9140u 
 l eff              29.0000n     29.0000n     29.0000n   29.0000n 
 rd eff              0.           0.           0.         0.      
 rs eff              0.           0.           0.         0.      
 cdsat             495.8092a    495.8092a    495.8092a  495.8092a 
 cssat             495.8092a    495.8092a    495.8092a  495.8092a 
 capbd             133.6681a    133.6681a    133.6681a  133.6681a 
 capbs             116.1033a    116.1033a    116.1033a  116.1033a 
 temp               25.0000      25.0000      25.0000    25.0000  
 aic                                                              
 nf                  1.0000       1.0000       1.0000     1.0000  
 min                 0.           0.           0.         0.      
 rbdb               15.0000      15.0000      15.0000    15.0000  
 rbsb               15.0000      15.0000      15.0000    15.0000  
 rbpb                5.0000       5.0000       5.0000     5.0000  
 rbps               15.0000      15.0000      15.0000    15.0000  
 rbpd               15.0000      15.0000      15.0000    15.0000  
 trnqsmod            0.           0.           0.         0.      
 acnqsmod            0.           0.           0.         0.      
 rbodymod            1.0000       1.0000       1.0000     1.0000  
 rgatemod            1.0000       1.0000       1.0000     1.0000  
 geomod              0.           0.           0.         0.      
 rgeomod             0.           0.           0.         0.      
 delvto              0.           0.           0.         0.      
 mulu0               1.0000       1.0000       1.0000     1.0000  
 delk1               0.           0.           0.         0.      
 delnfct             0.           0.           0.         0.      
 deltox              0.           0.           0.         0.      
 sa                  0.           0.           0.         0.      
 sb                  0.           0.           0.         0.      
 sd                  0.           0.           0.         0.      
 saeff               0.           0.           0.         0.      
 sbeff               0.           0.           0.         0.      
  
  
                                                                  
 element name        9:m5       9:m4       9:m1         9:m0      
 drain               9:bit      9:bit_b    1:net0206    1:net0207 
 gate                9:bit_b    9:bit      0:0          0:0       
 source              0:0        0:0        9:bit_b      9:bit     
 bulk                0:0        0:0        0:0          0:0       
 model               0:nmos     0:nmos     0:nmos       0:nmos    
 w eff               1.9520m    1.9520m    1.2480m      1.2480m   
 l eff              29.0000n   29.0000n   29.0000n     29.0000n   
 rd eff              0.         0.         0.           0.        
 rs eff              0.         0.         0.           0.        
 cdsat             183.8186f  183.8186f  125.9198f    125.9198f   
 cssat             183.8186f  183.8186f  125.9198f    125.9198f   
 capbd             178.5462a  178.5462a  133.6681a    133.6681a   
 capbs             152.1990a  152.1990a  116.1033a    116.1033a   
 temp               25.0000    25.0000    25.0000      25.0000    
 aic                                                              
 nf                  1.0000     1.0000     1.0000       1.0000    
 min                 0.         0.         0.           0.        
 rbdb               15.0000    15.0000    15.0000      15.0000    
 rbsb               15.0000    15.0000    15.0000      15.0000    
 rbpb                5.0000     5.0000     5.0000       5.0000    
 rbps               15.0000    15.0000    15.0000      15.0000    
 rbpd               15.0000    15.0000    15.0000      15.0000    
 trnqsmod            0.         0.         0.           0.        
 acnqsmod            0.         0.         0.           0.        
 rbodymod            1.0000     1.0000     1.0000       1.0000    
 rgatemod            1.0000     1.0000     1.0000       1.0000    
 geomod              0.         0.         0.           0.        
 rgeomod             0.         0.         0.           0.        
 delvto              0.         0.         0.           0.        
 mulu0               1.0000     1.0000     1.0000       1.0000    
 delk1               0.         0.         0.           0.        
 delnfct             0.         0.         0.           0.        
 deltox              0.         0.         0.           0.        
 sa                  0.         0.         0.           0.        
 sb                  0.         0.         0.           0.        
 sd                  0.         0.         0.           0.        
 saeff               0.         0.         0.           0.        
 sbeff               0.         0.         0.           0.        
  
  
                                                              
 element name        9:m2       9:m3      10:m5      10:m4    
 drain               9:bit_b    9:bit     10:bit     10:bit_b 
 gate                9:bit      9:bit_b   10:bit_b   10:bit   
 source              0:vcell    0:vcell    0:0        0:0     
 bulk                0:vdd!     0:vdd!     0:0        0:0     
 model               0:pmos     0:pmos     0:nmos     0:nmos  
 w eff               1.2480m    1.2480m    7.6860u    7.6860u 
 l eff              29.0000n   29.0000n   29.0000n   29.0000n 
 rd eff              0.         0.         0.         0.      
 rs eff              0.         0.         0.         0.      
 cdsat             125.9198f  125.9198f  723.7858a  723.7858a 
 cssat             125.9198f  125.9198f  723.7858a  723.7858a 
 capbd             133.6681a  133.6681a  178.5462a  178.5462a 
 capbs             116.1033a  116.1033a  152.1990a  152.1990a 
 temp               25.0000    25.0000    25.0000    25.0000  
 aic                                                          
 nf                  1.0000     1.0000     1.0000     1.0000  
 min                 0.         0.         0.         0.      
 rbdb               15.0000    15.0000    15.0000    15.0000  
 rbsb               15.0000    15.0000    15.0000    15.0000  
 rbpb                5.0000     5.0000     5.0000     5.0000  
 rbps               15.0000    15.0000    15.0000    15.0000  
 rbpd               15.0000    15.0000    15.0000    15.0000  
 trnqsmod            0.         0.         0.         0.      
 acnqsmod            0.         0.         0.         0.      
 rbodymod            1.0000     1.0000     1.0000     1.0000  
 rgatemod            1.0000     1.0000     1.0000     1.0000  
 geomod              0.         0.         0.         0.      
 rgeomod             0.         0.         0.         0.      
 delvto              0.         0.         0.         0.      
 mulu0               1.0000     1.0000     1.0000     1.0000  
 delk1               0.         0.         0.         0.      
 delnfct             0.         0.         0.         0.      
 deltox              0.         0.         0.         0.      
 sa                  0.         0.         0.         0.      
 sb                  0.         0.         0.         0.      
 sd                  0.         0.         0.         0.      
 saeff               0.         0.         0.         0.      
 sbeff               0.         0.         0.         0.      
  
  
                                                                  
 element name       10:m1        10:m0        10:m2      10:m3    
 drain               1:net0206    1:net0207   10:bit_b   10:bit   
 gate                0:0          0:0         10:bit     10:bit_b 
 source             10:bit_b     10:bit        0:vcell    0:vcell 
 bulk                0:0          0:0          0:vdd!     0:vdd!  
 model               0:nmos       0:nmos       0:pmos     0:pmos  
 w eff               4.9140u      4.9140u      4.9140u    4.9140u 
 l eff              29.0000n     29.0000n     29.0000n   29.0000n 
 rd eff              0.           0.           0.         0.      
 rs eff              0.           0.           0.         0.      
 cdsat             495.8092a    495.8092a    495.8092a  495.8092a 
 cssat             495.8092a    495.8092a    495.8092a  495.8092a 
 capbd             133.6681a    133.6681a    133.6681a  133.6681a 
 capbs             116.1033a    116.1033a    116.1033a  116.1033a 
 temp               25.0000      25.0000      25.0000    25.0000  
 aic                                                              
 nf                  1.0000       1.0000       1.0000     1.0000  
 min                 0.           0.           0.         0.      
 rbdb               15.0000      15.0000      15.0000    15.0000  
 rbsb               15.0000      15.0000      15.0000    15.0000  
 rbpb                5.0000       5.0000       5.0000     5.0000  
 rbps               15.0000      15.0000      15.0000    15.0000  
 rbpd               15.0000      15.0000      15.0000    15.0000  
 trnqsmod            0.           0.           0.         0.      
 acnqsmod            0.           0.           0.         0.      
 rbodymod            1.0000       1.0000       1.0000     1.0000  
 rgatemod            1.0000       1.0000       1.0000     1.0000  
 geomod              0.           0.           0.         0.      
 rgeomod             0.           0.           0.         0.      
 delvto              0.           0.           0.         0.      
 mulu0               1.0000       1.0000       1.0000     1.0000  
 delk1               0.           0.           0.         0.      
 delnfct             0.           0.           0.         0.      
 deltox              0.           0.           0.         0.      
 sa                  0.           0.           0.         0.      
 sb                  0.           0.           0.         0.      
 sd                  0.           0.           0.         0.      
 saeff               0.           0.           0.         0.      
 sbeff               0.           0.           0.         0.      
  
  
                                                                  
 element name       11:m5      11:m4      11:m1        11:m0      
 drain              11:bit     11:bit_b    1:net0162    1:net0163 
 gate               11:bit_b   11:bit      0:0          0:0       
 source              0:0        0:0       11:bit_b     11:bit     
 bulk                0:0        0:0        0:0          0:0       
 model               0:nmos     0:nmos     0:nmos       0:nmos    
 w eff               7.8080u    7.8080u    4.9920u      4.9920u   
 l eff              29.0000n   29.0000n   29.0000n     29.0000n   
 rd eff              0.         0.         0.           0.        
 rs eff              0.         0.         0.           0.        
 cdsat             735.2745a  735.2745a  503.6792a    503.6792a   
 cssat             735.2745a  735.2745a  503.6792a    503.6792a   
 capbd             178.5462a  178.5462a  133.6681a    133.6681a   
 capbs             152.1990a  152.1990a  116.1033a    116.1033a   
 temp               25.0000    25.0000    25.0000      25.0000    
 aic                                                              
 nf                  1.0000     1.0000     1.0000       1.0000    
 min                 0.         0.         0.           0.        
 rbdb               15.0000    15.0000    15.0000      15.0000    
 rbsb               15.0000    15.0000    15.0000      15.0000    
 rbpb                5.0000     5.0000     5.0000       5.0000    
 rbps               15.0000    15.0000    15.0000      15.0000    
 rbpd               15.0000    15.0000    15.0000      15.0000    
 trnqsmod            0.         0.         0.           0.        
 acnqsmod            0.         0.         0.           0.        
 rbodymod            1.0000     1.0000     1.0000       1.0000    
 rgatemod            1.0000     1.0000     1.0000       1.0000    
 geomod              0.         0.         0.           0.        
 rgeomod             0.         0.         0.           0.        
 delvto              0.         0.         0.           0.        
 mulu0               1.0000     1.0000     1.0000       1.0000    
 delk1               0.         0.         0.           0.        
 delnfct             0.         0.         0.           0.        
 deltox              0.         0.         0.           0.        
 sa                  0.         0.         0.           0.        
 sb                  0.         0.         0.           0.        
 sd                  0.         0.         0.           0.        
 saeff               0.         0.         0.           0.        
 sbeff               0.         0.         0.           0.        
  
  
                                                              
 element name       11:m2      11:m3      12:m5      12:m4    
 drain              11:bit_b   11:bit     12:bit     12:bit_b 
 gate               11:bit     11:bit_b   12:bit_b   12:bit   
 source              0:vcell    0:vcell    0:0        0:0     
 bulk                0:vdd!     0:vdd!     0:0        0:0     
 model               0:pmos     0:pmos     0:nmos     0:nmos  
 w eff               4.9920u    4.9920u    7.8080u    7.8080u 
 l eff              29.0000n   29.0000n   29.0000n   29.0000n 
 rd eff              0.         0.         0.         0.      
 rs eff              0.         0.         0.         0.      
 cdsat             503.6792a  503.6792a  735.2745a  735.2745a 
 cssat             503.6792a  503.6792a  735.2745a  735.2745a 
 capbd             133.6681a  133.6681a  178.5462a  178.5462a 
 capbs             116.1033a  116.1033a  152.1990a  152.1990a 
 temp               25.0000    25.0000    25.0000    25.0000  
 aic                                                          
 nf                  1.0000     1.0000     1.0000     1.0000  
 min                 0.         0.         0.         0.      
 rbdb               15.0000    15.0000    15.0000    15.0000  
 rbsb               15.0000    15.0000    15.0000    15.0000  
 rbpb                5.0000     5.0000     5.0000     5.0000  
 rbps               15.0000    15.0000    15.0000    15.0000  
 rbpd               15.0000    15.0000    15.0000    15.0000  
 trnqsmod            0.         0.         0.         0.      
 acnqsmod            0.         0.         0.         0.      
 rbodymod            1.0000     1.0000     1.0000     1.0000  
 rgatemod            1.0000     1.0000     1.0000     1.0000  
 geomod              0.         0.         0.         0.      
 rgeomod             0.         0.         0.         0.      
 delvto              0.         0.         0.         0.      
 mulu0               1.0000     1.0000     1.0000     1.0000  
 delk1               0.         0.         0.         0.      
 delnfct             0.         0.         0.         0.      
 deltox              0.         0.         0.         0.      
 sa                  0.         0.         0.         0.      
 sb                  0.         0.         0.         0.      
 sd                  0.         0.         0.         0.      
 saeff               0.         0.         0.         0.      
 sbeff               0.         0.         0.         0.      
  
  
                                                                  
 element name       12:m1        12:m0        12:m2      12:m3    
 drain               1:net0162    1:net0163   12:bit_b   12:bit   
 gate                0:0          0:0         12:bit     12:bit_b 
 source             12:bit_b     12:bit        0:vcell    0:vcell 
 bulk                0:0          0:0          0:vdd!     0:vdd!  
 model               0:nmos       0:nmos       0:pmos     0:pmos  
 w eff               4.9920u      4.9920u      4.9920u    4.9920u 
 l eff              29.0000n     29.0000n     29.0000n   29.0000n 
 rd eff              0.           0.           0.         0.      
 rs eff              0.           0.           0.         0.      
 cdsat             503.6792a    503.6792a    503.6792a  503.6792a 
 cssat             503.6792a    503.6792a    503.6792a  503.6792a 
 capbd             133.6681a    133.6681a    133.6681a  133.6681a 
 capbs             116.1033a    116.1033a    116.1033a  116.1033a 
 temp               25.0000      25.0000      25.0000    25.0000  
 aic                                                              
 nf                  1.0000       1.0000       1.0000     1.0000  
 min                 0.           0.           0.         0.      
 rbdb               15.0000      15.0000      15.0000    15.0000  
 rbsb               15.0000      15.0000      15.0000    15.0000  
 rbpb                5.0000       5.0000       5.0000     5.0000  
 rbps               15.0000      15.0000      15.0000    15.0000  
 rbpd               15.0000      15.0000      15.0000    15.0000  
 trnqsmod            0.           0.           0.         0.      
 acnqsmod            0.           0.           0.         0.      
 rbodymod            1.0000       1.0000       1.0000     1.0000  
 rgatemod            1.0000       1.0000       1.0000     1.0000  
 geomod              0.           0.           0.         0.      
 rgeomod             0.           0.           0.         0.      
 delvto              0.           0.           0.         0.      
 mulu0               1.0000       1.0000       1.0000     1.0000  
 delk1               0.           0.           0.         0.      
 delnfct             0.           0.           0.         0.      
 deltox              0.           0.           0.         0.      
 sa                  0.           0.           0.         0.      
 sb                  0.           0.           0.         0.      
 sd                  0.           0.           0.         0.      
 saeff               0.           0.           0.         0.      
 sbeff               0.           0.           0.         0.      
  
  
                                                                  
 element name       13:m5      13:m4      13:m1        13:m0      
 drain              13:bit     13:bit_b    1:net0162    1:net0163 
 gate               13:bit_b   13:bit      0:0          0:0       
 source              0:0        0:0       13:bit_b     13:bit     
 bulk                0:0        0:0        0:0          0:0       
 model               0:nmos     0:nmos     0:nmos       0:nmos    
 w eff               1.9837m    1.9837m    1.2683m      1.2683m   
 l eff              29.0000n   29.0000n   29.0000n     29.0000n   
 rd eff              0.         0.         0.           0.        
 rs eff              0.         0.         0.           0.        
 cdsat             186.8057f  186.8057f  127.9660f    127.9660f   
 cssat             186.8057f  186.8057f  127.9660f    127.9660f   
 capbd             178.5462a  178.5462a  133.6681a    133.6681a   
 capbs             152.1990a  152.1990a  116.1033a    116.1033a   
 temp               25.0000    25.0000    25.0000      25.0000    
 aic                                                              
 nf                  1.0000     1.0000     1.0000       1.0000    
 min                 0.         0.         0.           0.        
 rbdb               15.0000    15.0000    15.0000      15.0000    
 rbsb               15.0000    15.0000    15.0000      15.0000    
 rbpb                5.0000     5.0000     5.0000       5.0000    
 rbps               15.0000    15.0000    15.0000      15.0000    
 rbpd               15.0000    15.0000    15.0000      15.0000    
 trnqsmod            0.         0.         0.           0.        
 acnqsmod            0.         0.         0.           0.        
 rbodymod            1.0000     1.0000     1.0000       1.0000    
 rgatemod            1.0000     1.0000     1.0000       1.0000    
 geomod              0.         0.         0.           0.        
 rgeomod             0.         0.         0.           0.        
 delvto              0.         0.         0.           0.        
 mulu0               1.0000     1.0000     1.0000       1.0000    
 delk1               0.         0.         0.           0.        
 delnfct             0.         0.         0.           0.        
 deltox              0.         0.         0.           0.        
 sa                  0.         0.         0.           0.        
 sb                  0.         0.         0.           0.        
 sd                  0.         0.         0.           0.        
 saeff               0.         0.         0.           0.        
 sbeff               0.         0.         0.           0.        
  
  
                                                              
 element name       13:m2      13:m3      14:m5      14:m4    
 drain              13:bit_b   13:bit     14:bit     14:bit_b 
 gate               13:bit     13:bit_b   14:bit_b   14:bit   
 source              0:vcell    0:vcell    0:0        0:0     
 bulk                0:vdd!     0:vdd!     0:0        0:0     
 model               0:pmos     0:pmos     0:nmos     0:nmos  
 w eff               1.2683m    1.2683m    7.8080u    7.8080u 
 l eff              29.0000n   29.0000n   29.0000n   29.0000n 
 rd eff              0.         0.         0.         0.      
 rs eff              0.         0.         0.         0.      
 cdsat             127.9660f  127.9660f  735.2745a  735.2745a 
 cssat             127.9660f  127.9660f  735.2745a  735.2745a 
 capbd             133.6681a  133.6681a  178.5462a  178.5462a 
 capbs             116.1033a  116.1033a  152.1990a  152.1990a 
 temp               25.0000    25.0000    25.0000    25.0000  
 aic                                                          
 nf                  1.0000     1.0000     1.0000     1.0000  
 min                 0.         0.         0.         0.      
 rbdb               15.0000    15.0000    15.0000    15.0000  
 rbsb               15.0000    15.0000    15.0000    15.0000  
 rbpb                5.0000     5.0000     5.0000     5.0000  
 rbps               15.0000    15.0000    15.0000    15.0000  
 rbpd               15.0000    15.0000    15.0000    15.0000  
 trnqsmod            0.         0.         0.         0.      
 acnqsmod            0.         0.         0.         0.      
 rbodymod            1.0000     1.0000     1.0000     1.0000  
 rgatemod            1.0000     1.0000     1.0000     1.0000  
 geomod              0.         0.         0.         0.      
 rgeomod             0.         0.         0.         0.      
 delvto              0.         0.         0.         0.      
 mulu0               1.0000     1.0000     1.0000     1.0000  
 delk1               0.         0.         0.         0.      
 delnfct             0.         0.         0.         0.      
 deltox              0.         0.         0.         0.      
 sa                  0.         0.         0.         0.      
 sb                  0.         0.         0.         0.      
 sd                  0.         0.         0.         0.      
 saeff               0.         0.         0.         0.      
 sbeff               0.         0.         0.         0.      
  
  
                                                                  
 element name       14:m1        14:m0        14:m2      14:m3    
 drain               1:net0136    1:net0180   14:bit_b   14:bit   
 gate                0:0          0:0         14:bit     14:bit_b 
 source             14:bit_b     14:bit        0:vcell    0:vcell 
 bulk                0:0          0:0          0:vdd!     0:vdd!  
 model               0:nmos       0:nmos       0:pmos     0:pmos  
 w eff               4.9920u      4.9920u      4.9920u    4.9920u 
 l eff              29.0000n     29.0000n     29.0000n   29.0000n 
 rd eff              0.           0.           0.         0.      
 rs eff              0.           0.           0.         0.      
 cdsat             503.6792a    503.6792a    503.6792a  503.6792a 
 cssat             503.6792a    503.6792a    503.6792a  503.6792a 
 capbd             133.6681a    133.6681a    133.6681a  133.6681a 
 capbs             116.1033a    116.1033a    116.1033a  116.1033a 
 temp               25.0000      25.0000      25.0000    25.0000  
 aic                                                              
 nf                  1.0000       1.0000       1.0000     1.0000  
 min                 0.           0.           0.         0.      
 rbdb               15.0000      15.0000      15.0000    15.0000  
 rbsb               15.0000      15.0000      15.0000    15.0000  
 rbpb                5.0000       5.0000       5.0000     5.0000  
 rbps               15.0000      15.0000      15.0000    15.0000  
 rbpd               15.0000      15.0000      15.0000    15.0000  
 trnqsmod            0.           0.           0.         0.      
 acnqsmod            0.           0.           0.         0.      
 rbodymod            1.0000       1.0000       1.0000     1.0000  
 rgatemod            1.0000       1.0000       1.0000     1.0000  
 geomod              0.           0.           0.         0.      
 rgeomod             0.           0.           0.         0.      
 delvto              0.           0.           0.         0.      
 mulu0               1.0000       1.0000       1.0000     1.0000  
 delk1               0.           0.           0.         0.      
 delnfct             0.           0.           0.         0.      
 deltox              0.           0.           0.         0.      
 sa                  0.           0.           0.         0.      
 sb                  0.           0.           0.         0.      
 sd                  0.           0.           0.         0.      
 saeff               0.           0.           0.         0.      
 sbeff               0.           0.           0.         0.      
  
  
                                                                  
 element name       15:m5      15:m4      15:m1        15:m0      
 drain              15:bit     15:bit_b    1:net0233    1:net0234 
 gate               15:bit_b   15:bit      0:0          0:0       
 source              0:0        0:0       15:bit_b     15:bit     
 bulk                0:0        0:0        0:0          0:0       
 model               0:nmos     0:nmos     0:nmos       0:nmos    
 w eff               7.6860u    7.6860u    4.9140u      4.9140u   
 l eff              29.0000n   29.0000n   29.0000n     29.0000n   
 rd eff              0.         0.         0.           0.        
 rs eff              0.         0.         0.           0.        
 cdsat             723.7858a  723.7858a  495.8092a    495.8092a   
 cssat             723.7858a  723.7858a  495.8092a    495.8092a   
 capbd             178.5462a  178.5462a  133.6681a    133.6681a   
 capbs             152.1990a  152.1990a  116.1033a    116.1033a   
 temp               25.0000    25.0000    25.0000      25.0000    
 aic                                                              
 nf                  1.0000     1.0000     1.0000       1.0000    
 min                 0.         0.         0.           0.        
 rbdb               15.0000    15.0000    15.0000      15.0000    
 rbsb               15.0000    15.0000    15.0000      15.0000    
 rbpb                5.0000     5.0000     5.0000       5.0000    
 rbps               15.0000    15.0000    15.0000      15.0000    
 rbpd               15.0000    15.0000    15.0000      15.0000    
 trnqsmod            0.         0.         0.           0.        
 acnqsmod            0.         0.         0.           0.        
 rbodymod            1.0000     1.0000     1.0000       1.0000    
 rgatemod            1.0000     1.0000     1.0000       1.0000    
 geomod              0.         0.         0.           0.        
 rgeomod             0.         0.         0.           0.        
 delvto              0.         0.         0.           0.        
 mulu0               1.0000     1.0000     1.0000       1.0000    
 delk1               0.         0.         0.           0.        
 delnfct             0.         0.         0.           0.        
 deltox              0.         0.         0.           0.        
 sa                  0.         0.         0.           0.        
 sb                  0.         0.         0.           0.        
 sd                  0.         0.         0.           0.        
 saeff               0.         0.         0.           0.        
 sbeff               0.         0.         0.           0.        
  
  
                                                              
 element name       15:m2      15:m3      16:m5      16:m4    
 drain              15:bit_b   15:bit     16:bit     16:bit_b 
 gate               15:bit     15:bit_b   16:bit_b   16:bit   
 source              0:vcell    0:vcell    0:0        0:0     
 bulk                0:vdd!     0:vdd!     0:0        0:0     
 model               0:pmos     0:pmos     0:nmos     0:nmos  
 w eff               4.9140u    4.9140u  122.0000n  122.0000n 
 l eff              29.0000n   29.0000n   29.0000n   29.0000n 
 rd eff              0.         0.         0.         0.      
 rs eff              0.         0.         0.         0.      
 cdsat             495.8092a  495.8092a   11.4887a   11.4887a 
 cssat             495.8092a  495.8092a   11.4887a   11.4887a 
 capbd             133.6681a  133.6681a  178.5462a  178.5462a 
 capbs             116.1033a  116.1033a  152.1990a  152.1990a 
 temp               25.0000    25.0000    25.0000    25.0000  
 aic                                                          
 nf                  1.0000     1.0000     1.0000     1.0000  
 min                 0.         0.         0.         0.      
 rbdb               15.0000    15.0000    15.0000    15.0000  
 rbsb               15.0000    15.0000    15.0000    15.0000  
 rbpb                5.0000     5.0000     5.0000     5.0000  
 rbps               15.0000    15.0000    15.0000    15.0000  
 rbpd               15.0000    15.0000    15.0000    15.0000  
 trnqsmod            0.         0.         0.         0.      
 acnqsmod            0.         0.         0.         0.      
 rbodymod            1.0000     1.0000     1.0000     1.0000  
 rgatemod            1.0000     1.0000     1.0000     1.0000  
 geomod              0.         0.         0.         0.      
 rgeomod             0.         0.         0.         0.      
 delvto              0.         0.         0.         0.      
 mulu0               1.0000     1.0000     1.0000     1.0000  
 delk1               0.         0.         0.         0.      
 delnfct             0.         0.         0.         0.      
 deltox              0.         0.         0.         0.      
 sa                  0.         0.         0.         0.      
 sb                  0.         0.         0.         0.      
 sd                  0.         0.         0.         0.      
 saeff               0.         0.         0.         0.      
 sbeff               0.         0.         0.         0.      
  
  
                                                              
 element name       16:m1      16:m0      16:m2      16:m3    
 drain               0:0        0:0       16:bit_b   16:bit   
 gate                0:0        0:0       16:bit     16:bit_b 
 source             16:bit_b   16:bit      0:vcell    0:vcell 
 bulk                0:0        0:0        0:vdd!     0:vdd!  
 model               0:nmos     0:nmos     0:pmos     0:pmos  
 w eff              78.0000n   78.0000n   78.0000n   78.0000n 
 l eff              29.0000n   29.0000n   29.0000n   29.0000n 
 rd eff              0.         0.         0.         0.      
 rs eff              0.         0.         0.         0.      
 cdsat               7.8700a    7.8700a    7.8700a    7.8700a 
 cssat               7.8700a    7.8700a    7.8700a    7.8700a 
 capbd             133.6681a  133.6681a  133.6681a  133.6681a 
 capbs             116.1033a  116.1033a  116.1033a  116.1033a 
 temp               25.0000    25.0000    25.0000    25.0000  
 aic                                                          
 nf                  1.0000     1.0000     1.0000     1.0000  
 min                 0.         0.         0.         0.      
 rbdb               15.0000    15.0000    15.0000    15.0000  
 rbsb               15.0000    15.0000    15.0000    15.0000  
 rbpb                5.0000     5.0000     5.0000     5.0000  
 rbps               15.0000    15.0000    15.0000    15.0000  
 rbpd               15.0000    15.0000    15.0000    15.0000  
 trnqsmod            0.         0.         0.         0.      
 acnqsmod            0.         0.         0.         0.      
 rbodymod            1.0000     1.0000     1.0000     1.0000  
 rgatemod            1.0000     1.0000     1.0000     1.0000  
 geomod              0.         0.         0.         0.      
 rgeomod             0.         0.         0.         0.      
 delvto              0.         0.         0.         0.      
 mulu0               1.0000     1.0000     1.0000     1.0000  
 delk1               0.         0.         0.         0.      
 delnfct             0.         0.         0.         0.      
 deltox              0.         0.         0.         0.      
 sa                  0.         0.         0.         0.      
 sb                  0.         0.         0.         0.      
 sd                  0.         0.         0.         0.      
 saeff               0.         0.         0.         0.      
 sbeff               0.         0.         0.         0.      
  
  
                                                              
 element name       17:m5      17:m4      17:m1      17:m0    
 drain              17:bit     17:bit_b    0:0        0:0     
 gate               17:bit_b   17:bit      0:0        0:0     
 source              0:0        0:0       17:bit_b   17:bit   
 bulk                0:0        0:0        0:0        0:0     
 model               0:nmos     0:nmos     0:nmos     0:nmos  
 w eff              30.9880u   30.9880u   19.8120u   19.8120u 
 l eff              29.0000n   29.0000n   29.0000n   29.0000n 
 rd eff              0.         0.         0.         0.      
 rs eff              0.         0.         0.         0.      
 cdsat               2.9181f    2.9181f    1.9990f    1.9990f 
 cssat               2.9181f    2.9181f    1.9990f    1.9990f 
 capbd             178.5462a  178.5462a  133.6681a  133.6681a 
 capbs             152.1990a  152.1990a  116.1033a  116.1033a 
 temp               25.0000    25.0000    25.0000    25.0000  
 aic                                                          
 nf                  1.0000     1.0000     1.0000     1.0000  
 min                 0.         0.         0.         0.      
 rbdb               15.0000    15.0000    15.0000    15.0000  
 rbsb               15.0000    15.0000    15.0000    15.0000  
 rbpb                5.0000     5.0000     5.0000     5.0000  
 rbps               15.0000    15.0000    15.0000    15.0000  
 rbpd               15.0000    15.0000    15.0000    15.0000  
 trnqsmod            0.         0.         0.         0.      
 acnqsmod            0.         0.         0.         0.      
 rbodymod            1.0000     1.0000     1.0000     1.0000  
 rgatemod            1.0000     1.0000     1.0000     1.0000  
 geomod              0.         0.         0.         0.      
 rgeomod             0.         0.         0.         0.      
 delvto              0.         0.         0.         0.      
 mulu0               1.0000     1.0000     1.0000     1.0000  
 delk1               0.         0.         0.         0.      
 delnfct             0.         0.         0.         0.      
 deltox              0.         0.         0.         0.      
 sa                  0.         0.         0.         0.      
 sb                  0.         0.         0.         0.      
 sd                  0.         0.         0.         0.      
 saeff               0.         0.         0.         0.      
 sbeff               0.         0.         0.         0.      
  
  
                                                              
 element name       17:m2      17:m3      18:m5      18:m4    
 drain              17:bit_b   17:bit     18:bit     18:bit_b 
 gate               17:bit     17:bit_b   18:bit_b   18:bit   
 source              0:vcell    0:vcell    0:0        0:0     
 bulk                0:vdd!     0:vdd!     0:0        0:0     
 model               0:pmos     0:pmos     0:nmos     0:nmos  
 w eff              19.8120u   19.8120u    1.9520m    1.9520m 
 l eff              29.0000n   29.0000n   29.0000n   29.0000n 
 rd eff              0.         0.         0.         0.      
 rs eff              0.         0.         0.         0.      
 cdsat               1.9990f    1.9990f  183.8186f  183.8186f 
 cssat               1.9990f    1.9990f  183.8186f  183.8186f 
 capbd             133.6681a  133.6681a  178.5462a  178.5462a 
 capbs             116.1033a  116.1033a  152.1990a  152.1990a 
 temp               25.0000    25.0000    25.0000    25.0000  
 aic                                                          
 nf                  1.0000     1.0000     1.0000     1.0000  
 min                 0.         0.         0.         0.      
 rbdb               15.0000    15.0000    15.0000    15.0000  
 rbsb               15.0000    15.0000    15.0000    15.0000  
 rbpb                5.0000     5.0000     5.0000     5.0000  
 rbps               15.0000    15.0000    15.0000    15.0000  
 rbpd               15.0000    15.0000    15.0000    15.0000  
 trnqsmod            0.         0.         0.         0.      
 acnqsmod            0.         0.         0.         0.      
 rbodymod            1.0000     1.0000     1.0000     1.0000  
 rgatemod            1.0000     1.0000     1.0000     1.0000  
 geomod              0.         0.         0.         0.      
 rgeomod             0.         0.         0.         0.      
 delvto              0.         0.         0.         0.      
 mulu0               1.0000     1.0000     1.0000     1.0000  
 delk1               0.         0.         0.         0.      
 delnfct             0.         0.         0.         0.      
 deltox              0.         0.         0.         0.      
 sa                  0.         0.         0.         0.      
 sb                  0.         0.         0.         0.      
 sd                  0.         0.         0.         0.      
 saeff               0.         0.         0.         0.      
 sbeff               0.         0.         0.         0.      
  
  
                                                                  
 element name       18:m1        18:m0        18:m2      18:m3    
 drain               1:net0233    1:net0234   18:bit_b   18:bit   
 gate                0:0          0:0         18:bit     18:bit_b 
 source             18:bit_b     18:bit        0:vcell    0:vcell 
 bulk                0:0          0:0          0:vdd!     0:vdd!  
 model               0:nmos       0:nmos       0:pmos     0:pmos  
 w eff               1.2480m      1.2480m      1.2480m    1.2480m 
 l eff              29.0000n     29.0000n     29.0000n   29.0000n 
 rd eff              0.           0.           0.         0.      
 rs eff              0.           0.           0.         0.      
 cdsat             125.9198f    125.9198f    125.9198f  125.9198f 
 cssat             125.9198f    125.9198f    125.9198f  125.9198f 
 capbd             133.6681a    133.6681a    133.6681a  133.6681a 
 capbs             116.1033a    116.1033a    116.1033a  116.1033a 
 temp               25.0000      25.0000      25.0000    25.0000  
 aic                                                              
 nf                  1.0000       1.0000       1.0000     1.0000  
 min                 0.           0.           0.         0.      
 rbdb               15.0000      15.0000      15.0000    15.0000  
 rbsb               15.0000      15.0000      15.0000    15.0000  
 rbpb                5.0000       5.0000       5.0000     5.0000  
 rbps               15.0000      15.0000      15.0000    15.0000  
 rbpd               15.0000      15.0000      15.0000    15.0000  
 trnqsmod            0.           0.           0.         0.      
 acnqsmod            0.           0.           0.         0.      
 rbodymod            1.0000       1.0000       1.0000     1.0000  
 rgatemod            1.0000       1.0000       1.0000     1.0000  
 geomod              0.           0.           0.         0.      
 rgeomod             0.           0.           0.         0.      
 delvto              0.           0.           0.         0.      
 mulu0               1.0000       1.0000       1.0000     1.0000  
 delk1               0.           0.           0.         0.      
 delnfct             0.           0.           0.         0.      
 deltox              0.           0.           0.         0.      
 sa                  0.           0.           0.         0.      
 sb                  0.           0.           0.         0.      
 sd                  0.           0.           0.         0.      
 saeff               0.           0.           0.         0.      
 sbeff               0.           0.           0.         0.      
  
  
                                                                  
 element name       19:m5      19:m4      19:m1        19:m0      
 drain              19:bit     19:bit_b    1:net0136    1:net0180 
 gate               19:bit_b   19:bit      0:0          0:0       
 source              0:0        0:0       19:bit_b     19:bit     
 bulk                0:0        0:0        0:0          0:0       
 model               0:nmos     0:nmos     0:nmos       0:nmos    
 w eff               1.9837m    1.9837m    1.2683m      1.2683m   
 l eff              29.0000n   29.0000n   29.0000n     29.0000n   
 rd eff              0.         0.         0.           0.        
 rs eff              0.         0.         0.           0.        
 cdsat             186.8057f  186.8057f  127.9660f    127.9660f   
 cssat             186.8057f  186.8057f  127.9660f    127.9660f   
 capbd             178.5462a  178.5462a  133.6681a    133.6681a   
 capbs             152.1990a  152.1990a  116.1033a    116.1033a   
 temp               25.0000    25.0000    25.0000      25.0000    
 aic                                                              
 nf                  1.0000     1.0000     1.0000       1.0000    
 min                 0.         0.         0.           0.        
 rbdb               15.0000    15.0000    15.0000      15.0000    
 rbsb               15.0000    15.0000    15.0000      15.0000    
 rbpb                5.0000     5.0000     5.0000       5.0000    
 rbps               15.0000    15.0000    15.0000      15.0000    
 rbpd               15.0000    15.0000    15.0000      15.0000    
 trnqsmod            0.         0.         0.           0.        
 acnqsmod            0.         0.         0.           0.        
 rbodymod            1.0000     1.0000     1.0000       1.0000    
 rgatemod            1.0000     1.0000     1.0000       1.0000    
 geomod              0.         0.         0.           0.        
 rgeomod             0.         0.         0.           0.        
 delvto              0.         0.         0.           0.        
 mulu0               1.0000     1.0000     1.0000       1.0000    
 delk1               0.         0.         0.           0.        
 delnfct             0.         0.         0.           0.        
 deltox              0.         0.         0.           0.        
 sa                  0.         0.         0.           0.        
 sb                  0.         0.         0.           0.        
 sd                  0.         0.         0.           0.        
 saeff               0.         0.         0.           0.        
 sbeff               0.         0.         0.           0.        
  
  
                                                              
 element name       19:m2      19:m3      20:m5      20:m4    
 drain              19:bit_b   19:bit     20:bit     20:bit_b 
 gate               19:bit     19:bit_b   20:bit_b   20:bit   
[...]
 element  35:m2       36:m1       36:m2       37:m1       37:m2      
 model     0:nmos      0:pmos      0:nmos      0:pmos      0:nmos    
 region        Linear      Cutoff      Linear      Linear      Cutoff
  id        129.5813n  -212.2787n     3.4669u  -787.1675n   849.6747n
  ibs       9.147e-26  -4.138e-23   6.076e-25  -1.331e-25   4.145e-23
  ibd      -455.6048a    44.1000p    -1.9413f     3.7483f   -44.1001p
  vgs       700.0000m     0.        700.0000m  -699.9928m     7.2288u
  vds         7.2288u  -699.9693m    30.7415u   -59.4249u   699.9406m
  vbs         0.          0.          0.          0.          0.     
  vth       370.5952m  -251.2192m   370.5936m  -310.7583m   322.8452m
  vdsat     204.3083m   -46.1538m   207.5569m  -323.0758m    39.9777m
  vod       329.4048m   251.2192m   329.4064m  -389.2344m  -322.8380m
  beta      123.4504m    44.6745m   819.8385m    40.1423m   971.5473m
  gam eff   441.0000m   394.0000m   441.0000m   394.0000m   441.0000m
  gm        170.2052n     5.4599u     4.3295u     1.5423u    21.5303u
  gds        17.9255m   523.0145n   112.7700m    13.2453m     1.6170u
  gmb        61.0983n     1.2457u     1.5523u   464.6835n     6.1888u
  cdtot      14.0022f    20.8016f    73.7162f    37.8917f    39.4831f
  cgtot       8.2534f    13.0044f    54.5473f    27.3679f    27.2667f
  cstot      10.3287f    22.8279f    50.0370f    26.3147f    43.1732f
  cbtot      16.6504f    35.3975f    72.4842f    38.5782f    66.4584f
  cgs         4.5567f     6.3848f    30.2625f    15.4340f    13.0586f
  cgd         3.6616f     4.2337f    24.3151f    11.8574f     8.6740f



 subckt    xi0.xwrite  xi0.xwrite  xi0.xwrite  xi0.xwrite  xi0.xwrite
 element  38:m1       38:m2       39:m1       39:m2       40:m1      
 model     0:pmos      0:nmos      0:pmos      0:nmos      0:pmos    
 region        Cutoff      Linear      Cutoff      Linear      Linear
  id       -140.9253n   131.6381n  -215.6482n     3.5220u  -799.6622n
  ibs      -4.203e-23   9.292e-26  -4.205e-23   6.173e-25  -1.352e-25
  ibd        44.8009p  -462.8366a    44.8000p    -1.9721f     3.8078f
  vgs         0.        700.0000m     0.        700.0000m  -699.9928m
  vds      -699.9928m     7.2288u  -699.9693m    30.7415u   -59.4249u
  vbs         0.          0.          0.          0.          0.     
  vth      -251.2172m   370.5952m  -251.2192m   370.5936m  -310.7583m
  vdsat     -46.1533m   204.3083m   -46.1538m   207.5569m  -323.0758m
  vod       251.2172m   329.4048m   251.2192m   329.4064m  -389.2344m
  beta       29.6603m   125.4099m    45.3836m   832.8518m    40.7795m
  gam eff   394.0000m   441.0000m   394.0000m   441.0000m   394.0000m
  gm          3.6247u   172.9069n     5.5466u     4.3982u     1.5668u
  gds       347.2124n    18.2100m   531.3164n   114.5600m    13.4555m
  gmb       826.9894n    62.0681n     1.2655u     1.5769u   472.0594n
  cdtot      14.8192f    14.2245f    21.1318f    74.8863f    38.4931f
  cgtot       8.6503f     8.3845f    13.2108f    55.4132f    27.8023f
  cstot      16.3137f    10.4926f    23.1902f    50.8313f    26.7323f
  cbtot      25.6841f    16.9147f    35.9594f    73.6347f    39.1906f
  cgs         4.2390f     4.6290f     6.4862f    30.7428f    15.6789f
  cgd         2.8108f     3.7197f     4.3009f    24.7011f    12.0456f



 subckt    xi0.xwrite  xi0.xwrite  xi0.xwrite  xi0.xwrite  xi0.xwrite
 element  40:m2       41:m1       41:m2       42:m1       42:m2      
 model     0:nmos      0:pmos      0:nmos      0:pmos      0:nmos    
 region        Cutoff      Cutoff      Linear      Cutoff      Linear
  id        863.1616n  -140.9253n   131.6381n  -215.6482n     3.5220u
  ibs       4.210e-23  -4.203e-23   9.292e-26  -4.205e-23   6.173e-25
  ibd       -44.8001p    44.8009p  -462.8366a    44.8000p    -1.9721f
  vgs         7.2288u     0.        700.0000m     0.        700.0000m
  vds       699.9406m  -699.9928m     7.2288u  -699.9693m    30.7415u
  vbs         0.          0.          0.          0.          0.     
  vth       322.8452m  -251.2172m   370.5952m  -251.2192m   370.5936m
  vdsat      39.9777m   -46.1533m   204.3083m   -46.1538m   207.5569m
  vod      -322.8380m   251.2172m   329.4048m   251.2192m   329.4064m
  beta      986.9687m    29.6603m   125.4099m    45.3836m   832.8518m
  gam eff   441.0000m   394.0000m   441.0000m   394.0000m   441.0000m
  gm         21.8720u     3.6247u   172.9069n     5.5466u     4.3982u
  gds         1.6427u   347.2124n    18.2100m   531.3164n   114.5600m
  gmb         6.2871u   826.9894n    62.0681n     1.2655u     1.5769u
  cdtot      40.1098f    14.8192f    14.2245f    21.1318f    74.8863f
  cgtot      27.6995f     8.6503f     8.3845f    13.2108f    55.4132f
  cstot      43.8585f    16.3137f    10.4926f    23.1902f    50.8313f
  cbtot      67.5133f    25.6841f    16.9147f    35.9594f    73.6347f
  cgs        13.2658f     4.2390f     4.6290f     6.4862f    30.7428f
  cgd         8.8117f     2.8108f     3.7197f     4.3009f    24.7011f



 subckt    xi0.xwrite  xi0.xwrite  xi0.xwrite  xi0.xwrite  xi0.xwrite
 element  43:m1       43:m2       44:m1       44:m2       45:m1      
 model     0:pmos      0:nmos      0:pmos      0:nmos      0:pmos    
 region        Linear      Cutoff      Cutoff      Linear      Cutoff
  id       -799.6622n   863.1616n  -138.7233n   129.5813n  -212.2787n
  ibs      -1.352e-25   4.210e-23  -4.137e-23   9.147e-26  -4.138e-23
  ibd         3.8078f   -44.8001p    44.1009p  -455.6048a    44.1000p
  vgs      -699.9928m     7.2288u     0.        700.0000m     0.     
  vds       -59.4249u   699.9406m  -699.9928m     7.2288u  -699.9693m
  vbs         0.          0.          0.          0.          0.     
  vth      -310.7583m   322.8452m  -251.2172m   370.5952m  -251.2192m
  vdsat    -323.0758m    39.9777m   -46.1533m   204.3083m   -46.1538m
  vod      -389.2344m  -322.8380m   251.2172m   329.4048m   251.2192m
  beta       40.7795m   986.9687m    29.1968m   123.4504m    44.6745m
  gam eff   394.0000m   441.0000m   394.0000m   441.0000m   394.0000m
  gm          1.5668u    21.8720u     3.5680u   170.2052n     5.4599u
  gds        13.4555m     1.6427u   341.7872n    17.9255m   523.0145n
  gmb       472.0594n     6.2871u   814.0677n    61.0983n     1.2457u
  cdtot      38.4931f    40.1098f    14.5877f    14.0022f    20.8016f
  cgtot      27.8023f    27.6995f     8.5151f     8.2534f    13.0044f
  cstot      26.7323f    43.8585f    16.0588f    10.3287f    22.8279f
  cbtot      39.1906f    67.5133f    25.2828f    16.6504f    35.3975f
  cgs        15.6789f    13.2658f     4.1728f     4.5567f     6.3848f
  cgd        12.0456f     8.8117f     2.7669f     3.6616f     4.2337f



 subckt    xi0.xwrite  xi0.xwrite  xi0.xwrite  xi0.xwrite  xi0.xwrite
 element  45:m2       46:m1       46:m2       47:m1       47:m2      
 model     0:nmos      0:pmos      0:nmos      0:pmos      0:nmos    
 region        Linear      Linear      Cutoff      Linear      Cutoff
  id          3.4669u  -787.1675n   849.6747n    -2.8505n     2.0294n
  ibs       6.076e-25  -1.331e-25   4.145e-23  -1.333e-27   6.565e-25
  ibd        -1.9413f     3.7483f   -44.1001p    20.7072a  -699.9903f
  vgs       700.0000m  -699.9928m     7.2288u  -700.0000m     0.     
  vds        30.7415u   -59.4249u   699.9406m   -20.6904u   699.9793m
  vbs         0.          0.          0.          0.          0.     
  vth       370.5936m  -310.7583m   322.8452m  -310.7616m   322.8426m
  vdsat     207.5569m  -323.0758m    39.9777m  -322.9867m    39.9161m
  vod       329.4064m  -389.2344m  -322.8380m  -389.2384m  -322.8426m
  beta      819.8385m    40.1423m   971.5473m   416.4224u     2.3221m
  gam eff   441.0000m   394.0000m   441.0000m   394.0000m   441.0000m
  gm          4.3295u     1.5423u    21.5303u     5.5981n    51.4243n
  gds       112.7700m    13.2453m     1.6170u   137.7647u     3.8621n
  gmb         1.5523u   464.6835n     6.1888u     1.6868n    14.7816n
  cdtot      73.7162f    37.8917f    39.4831f   411.8871a   133.0138a
  cgtot      54.5473f    27.3679f    27.2667f   284.1657a    65.8017a
  cstot      50.0370f    26.3147f    43.1732f   291.0586a   147.5467a
  cbtot      72.4842f    38.5782f    66.4584f   437.3369a   242.4763a
  cgs        30.2625f    15.4340f    13.0586f   160.0976a    31.2116a
  cgd        24.3151f    11.8574f     8.6740f   123.0169a    20.7320a



 subckt    xi0.xwrite  xi0.xwrite  xi0.xwrite  xi0.xwrite  xclk_gen.x
 element  48:m1       48:m2       49:m1       49:m2       53:m_0     
 model     0:pmos      0:nmos      0:pmos      0:nmos      0:nmos    
 region        Linear      Cutoff      Cutoff      Linear      Cutoff
  id        -63.7507n    13.4782n    -3.3715n     3.7967n     4.3206n
  ibs      -2.445e-27   6.577e-25  -6.572e-25   9.614e-27   6.568e-25
  ibd       303.6631a  -699.7580f   700.0290f    -2.1259a  -700.0085f
  vgs      -700.0000m     0.        -20.6904u   699.9793m     0.     
  vds      -303.3008u   699.6967m  -699.9979m     2.1208u   699.9875m
  vbs         0.          0.          0.          0.          0.     
  vth      -310.7376m   322.8619m  -251.2168m   370.5955m   322.8420m
  vdsat    -323.0919m    39.9778m   -46.1538m   207.5467m    39.9532m
  vod      -389.2624m  -322.8619m   251.1961m   329.3838m  -322.8420m
  beta      637.1891u    15.4211m   709.1221u    13.0134m     4.9420m
  gam eff   394.0000m   441.0000m   394.0000m   441.0000m   441.0000m
  gm        124.9445n   341.5316n    86.7169n     4.7412n   109.4825n
  gds       210.0978u    25.6505n     8.3067n     1.7902m     8.2225n
  gmb        37.6379n    98.1742n    19.7847n     1.6999n    31.4704n
  cdtot     601.2168a   626.7439a   330.1822a     1.1702f   231.7528a
  cgtot     434.3990a   432.8091a   206.4210a   865.8318a   139.2019a
  cstot     417.8257a   685.2871a   362.3491a   794.1987a   255.0948a
  cbtot     612.3159a     1.0549f   561.8632a     1.1506f   404.9591a
  cgs       245.0787a   207.2772a   101.3488a   480.3271a    66.4247a
  cgd       188.1026a   137.6877a    67.2017a   385.9857a    44.1218a



 subckt    xclk_gen.x  xclk_gen.x  xclk_gen.x  xclk_gen.x  xclk_gen.x
 element  53:m_1      54:m_0      54:m_1      55:m_0      55:m_1     
 model     0:pmos      0:nmos      0:pmos      0:nmos      0:pmos    
 region        Linear      Linear      Cutoff      Cutoff      Linear
  id         -5.3360n    26.8934n   -27.5003n    69.1500n   -85.3960n
  ibs      -4.340e-27   1.235e-26  -2.631e-24   1.051e-23  -6.944e-26
  ibd        12.5037a   -45.9297a     2.8002p   -11.2001p   200.1111a
  vgs      -700.0000m   699.9875m   -12.4742u    11.4731u  -699.9885m
  vds       -12.4742u    11.4731u  -699.9885m   699.9875m   -12.4774u
  vbs         0.          0.          0.          0.          0.     
  vth      -310.7623m   370.5949m  -251.2176m   322.8420m  -310.7623m
  vdsat    -323.1697m   206.2743m   -46.1542m    39.9532m  -323.1624m
  vod      -389.2377m   329.3926m   251.2051m  -322.8306m  -389.2262m
  beta        1.2994m    16.6812m     5.7846m    79.0721m    20.7911m
  gam eff   394.0000m   441.0000m   394.0000m   441.0000m   394.0000m
  gm         10.4284n    34.2589n   707.3202n     1.7522u   166.9007n
  gds       427.7557u     2.3440m    67.7552n   131.5983n     6.8439m
  gmb         3.1421n    12.2890n   161.3779n   503.6685n    50.2863n
  cdtot       1.1703f     1.6473f     2.5043f     3.7080f    18.7252f
  cgtot     885.1605a     1.1119f     1.6808f     2.2272f    14.1625f
  cstot     797.5023a     1.1600f     2.7387f     4.0815f    12.7600f
  cbtot       1.1374f     1.7662f     4.1741f     6.4793f    18.1988f
  cgs       499.5751a   615.7214a   826.7441a     1.0628f     7.9932f
  cgd       383.8795a   494.7642a   548.1969a   705.9508a     6.1421f



 subckt    xclk_gen.x  xclk_gen.x  xa0_gen.xg  xa0_gen.xg  xa0_gen.xg
 element  56:m_0      56:m_1      57:m_0      57:m_1      58:m_0     
 model     0:nmos      0:pmos      0:nmos      0:pmos      0:nmos    
 region        Linear      Cutoff      Cutoff      Linear      Linear
  id        448.6321n  -440.0050n     4.3206n    -5.3360n    26.8934n
  ibs       1.976e-25  -4.210e-23   6.568e-25  -4.340e-27   1.235e-26
  ibd      -766.1937a    44.8032p  -700.0085f    12.5037a   -45.9297a
  vgs       699.9875m   -12.4774u     0.       -700.0000m   699.9875m
  vds        11.9621u  -699.9880m   699.9875m   -12.4742u    11.4731u
  vbs         0.          0.          0.          0.          0.     
  vth       370.5949m  -251.2176m   322.8420m  -310.7623m   370.5949m
  vdsat     206.2743m   -46.1542m    39.9532m  -323.1697m   206.2743m
  vod       329.3927m   251.2051m  -322.8420m  -389.2377m   329.3926m
  beta      266.8997m    92.5543m     4.9420m     1.2994m    16.6812m
  gam eff   441.0000m   394.0000m   441.0000m   394.0000m   441.0000m
  gm        571.5023n    11.3171u   109.4825n    10.4284n    34.2589n
  gds        37.5037m     1.0841u     8.2225n   427.7557u     2.3440m
  gmb       205.0027n     2.5820u    31.4704n     3.1421n    12.2890n
  cdtot      26.3573f    40.0690f   231.7528a     1.1703f     1.6473f
  cgtot      17.7902f    26.8925f   139.2019a   885.1605a     1.1119f
  cstot      18.5601f    43.8199f   255.0948a   797.5023a     1.1600f
  cbtot      28.2587f    66.7850f   404.9591a     1.1374f     1.7662f
  cgs         9.8516f    13.2279f    66.4247a   499.5751a   615.7214a
  cgd         7.9162f     8.7712f    44.1218a   383.8795a   494.7642a



 subckt    xa0_gen.xg  xa0_gen.xg  xa0_gen.xg  xa0_gen.xg  xa0_gen.xg
 element  58:m_1      59:m_0      59:m_1      60:m_0      60:m_1     
 model     0:pmos      0:nmos      0:pmos      0:nmos      0:pmos    
 region        Cutoff      Cutoff      Linear      Linear      Cutoff
  id        -27.5003n    69.1500n   -85.3960n   448.6321n  -440.0050n
  ibs      -2.631e-24   1.051e-23  -6.944e-26   1.976e-25  -4.210e-23
  ibd         2.8002p   -11.2001p   200.1111a  -766.1937a    44.8032p
  vgs       -12.4742u    11.4731u  -699.9885m   699.9875m   -12.4774u
  vds      -699.9885m   699.9875m   -12.4774u    11.9621u  -699.9880m
  vbs         0.          0.          0.          0.          0.     
  vth      -251.2176m   322.8420m  -310.7623m   370.5949m  -251.2176m
  vdsat     -46.1542m    39.9532m  -323.1624m   206.2743m   -46.1542m
  vod       251.2051m  -322.8306m  -389.2262m   329.3927m   251.2051m
  beta        5.7846m    79.0721m    20.7911m   266.8997m    92.5543m
  gam eff   394.0000m   441.0000m   394.0000m   441.0000m   394.0000m
  gm        707.3202n     1.7522u   166.9007n   571.5023n    11.3171u
  gds        67.7552n   131.5983n     6.8439m    37.5037m     1.0841u
  gmb       161.3779n   503.6685n    50.2863n   205.0027n     2.5820u
  cdtot       2.5043f     3.7080f    18.7252f    26.3573f    40.0690f
  cgtot       1.6808f     2.2272f    14.1625f    17.7902f    26.8925f
  cstot       2.7387f     4.0815f    12.7600f    18.5601f    43.8199f
  cbtot       4.1741f     6.4793f    18.1988f    28.2587f    66.7850f
  cgs       826.7441a     1.0628f     7.9932f     9.8516f    13.2279f
  cgd       548.1969a   705.9508a     6.1421f     7.9162f     8.7712f



 subckt    xa255_gen.  xa255_gen.  xa255_gen.  xa255_gen.  xa255_gen.
 element  61:m_0      61:m_1      62:m_0      62:m_1      63:m_0     
 model     0:nmos      0:pmos      0:nmos      0:pmos      0:nmos    
 region        Cutoff      Linear      Linear      Cutoff      Cutoff
  id          4.3206n    -5.3360n    26.8934n   -27.5003n    69.1500n
  ibs       6.568e-25  -4.340e-27   1.235e-26  -2.631e-24   1.051e-23
  ibd      -700.0085f    12.5037a   -45.9297a     2.8002p   -11.2001p
  vgs         0.       -700.0000m   699.9875m   -12.4742u    11.4731u
  vds       699.9875m   -12.4742u    11.4731u  -699.9885m   699.9875m
  vbs         0.          0.          0.          0.          0.     
  vth       322.8420m  -310.7623m   370.5949m  -251.2176m   322.8420m
  vdsat      39.9532m  -323.1697m   206.2743m   -46.1542m    39.9532m
  vod      -322.8420m  -389.2377m   329.3926m   251.2051m  -322.8306m
  beta        4.9420m     1.2994m    16.6812m     5.7846m    79.0721m
  gam eff   441.0000m   394.0000m   441.0000m   394.0000m   441.0000m
  gm        109.4825n    10.4284n    34.2589n   707.3202n     1.7522u
  gds         8.2225n   427.7557u     2.3440m    67.7552n   131.5983n
  gmb        31.4704n     3.1421n    12.2890n   161.3779n   503.6685n
  cdtot     231.7528a     1.1703f     1.6473f     2.5043f     3.7080f
  cgtot     139.2019a   885.1605a     1.1119f     1.6808f     2.2272f
  cstot     255.0948a   797.5023a     1.1600f     2.7387f     4.0815f
  cbtot     404.9591a     1.1374f     1.7662f     4.1741f     6.4793f
  cgs        66.4247a   499.5751a   615.7214a   826.7441a     1.0628f
  cgd        44.1218a   383.8795a   494.7642a   548.1969a   705.9508a



 subckt    xa255_gen.  xa255_gen.  xa255_gen.
 element  63:m_1      64:m_0      64:m_1     
 model     0:pmos      0:nmos      0:pmos    
 region        Linear      Linear      Cutoff
  id        -85.3960n   448.6321n  -440.0050n
  ibs      -6.944e-26   1.976e-25  -4.210e-23
  ibd       200.1111a  -766.1937a    44.8032p
  vgs      -699.9885m   699.9875m   -12.4774u
  vds       -12.4774u    11.9621u  -699.9880m
  vbs         0.          0.          0.     
  vth      -310.7623m   370.5949m  -251.2176m
  vdsat    -323.1624m   206.2743m   -46.1542m
  vod      -389.2262m   329.3927m   251.2051m
  beta       20.7911m   266.8997m    92.5543m
  gam eff   394.0000m   441.0000m   394.0000m
  gm        166.9007n   571.5023n    11.3171u
  gds         6.8439m    37.5037m     1.0841u
  gmb        50.2863n   205.0027n     2.5820u
  cdtot      18.7252f    26.3573f    40.0690f
  cgtot      14.1625f    17.7902f    26.8925f
  cstot      12.7600f    18.5601f    43.8199f
  cbtot      18.1988f    28.2587f    66.7850f
  cgs         7.9932f     9.8516f    13.2279f
  cgd         6.1421f     7.9162f     8.7712f



 ******  
 part 2

  ******  transient analysis tnom=  25.000 temp=  27.000 *****
 write_core_power=-700.0000n  from=   2.0000n     to=   3.0000n
 vcell_power=-204.5909u  from=   2.0000n     to=   3.0000n
 mem_core_power=-205.2909u

          ***** job concluded
1****** HSPICE -- F-2011.09-SP2 32-BIT (Feb 27 2012) linux ******               
 ******  
 part 2

  ******  job statistics summary tnom=  25.000 temp=  27.000 *****
  
  
 ******  Machine Information  ******
 CPU:
 model name	: Intel(R) Core(TM)2 Duo CPU     E8500  @ 3.16GHz
 cpu MHz	: 3158.761
  
 OS:
 Linux version 3.2.0-30-generic (buildd@batsu) (gcc version 4.6.3 (Ubuntu/Linaro
  4.6.3-1ubuntu5) ) #48-Ubuntu SMP Fri Aug 24 16:52:48 UTC 2012


  ******  HSPICE Threads Information  ******

  Command Line Threads Count :     1
  Available CPU Count        :     2
  Actual Threads Count       :     1


  ******  Circuit Statistics  ******
  # nodes       =     894 # elements   =     259
  # resistors   =       4 # capacitors =      24 # inductors   =       0
  # mutual_inds =       0 # vccs       =       0 # vcvs        =       3
  # cccs        =       6 # ccvs       =       0 # volt_srcs   =      24
  # curr_srcs   =       0 # diodes     =       0 # bjts        =       0
  # jfets       =       0 # mosfets    =     198 # U elements  =       0
  # T elements  =       0 # W elements =       0 # B elements  =       0
  # S elements  =       0 # P elements =       0 # va device   =       0
  # vector_srcs =       0


  ******  Runtime Statistics (seconds)  ******

  analysis           time    # points   tot. iter  conv.iter
  op point           0.00           1           7
  transient          3.14       60001       10660        2766 rev=       379
  readin             0.02
  errchk             0.02
  setup              0.02
  output             0.00


           peak memory used         90.71 megabytes
           total cpu time            3.20 seconds
           total elapsed time        3.53 seconds
           job started at     12:51:42 03/15/2013
           job ended   at     12:51:46 03/15/2013


 lic: Release hspice token(s) 
