Using: /usr/class/ee/synopsys/hspice/F-2011.09-SP2/hspice/linux/hspice array_leakage_power.hsp
 ****** HSPICE -- F-2011.09-SP2 32-BIT (Feb 27 2012) linux ******               
  Copyright (C) 2011 Synopsys, Inc. All Rights Reserved.                        
  Unpublished-rights reserved under US copyright laws.
  This program is protected by law and is subject to the
  terms and conditions of the license agreement from Synopsys.
  Use of this program is your acceptance to be bound by the
  license agreement. HSPICE is the trademark of Synopsys, Inc.
  Input File: array_leakage_power.hsp                                           
  Command line options: array_leakage_power.hsp
 lic:  
 lic: FLEXlm: v10.8 
 lic: USER:   veharvey             HOSTNAME: myth10 
 lic: HOSTID: 001ec92f9f5a         PID:      22376 
 lic: Using FLEXlm license file: 
 lic: 27000@cadlic0.stanford.edu 
 lic: Checkout 1 hspice 
 lic: License/Maintenance for hspice will expire on 16-nov-2013/2013.03 
 lic: 2(in_use)/100(total) FLOATING license(s) on SERVER cadlic0.stanford.edu 
 lic:   
 Init: read install configuration file: /usr/class/ee/synopsys/hspice/F-2011.09-SP2/hspice/meta.cfg

 **warning**  runlvl smaller than 5, reset to 5  when accurate turned on
 scientific notation:
 a=10**-18  f=10**-15  p=10**-12  n=10**-9  u=10**-6
 m=10**-3   k=10**3    x=10**6    g=10**9 

 **warning**  runlvl smaller than 5, reset to 5  when accurate turned on
1****** HSPICE -- F-2011.09-SP2 32-BIT (Feb 27 2012) linux ******               
 ******  
 part 2

  ******  circuit name directory
 circuit number to circuit name directory
   number circuitname                     definition         multiplier
        0 main circuit
        1 xi0.                            array_blocked_wordline_4
                                                                 1.00 
        2 xclk_gen.                       clk_gen            1.00 
        3 xa0_gen.                        a0_gen             1.00 
        4 xa255_gen.                      a255_gen           1.00 
        5 xi0.xmctr.                      mc                 1.00 
        6 xi0.xmcmr.                      mc               254.00 
        7 xi0.xmcbr.                      mc                 1.00 
        8 xi0.xmctb3dum.                  mc                63.00 
        9 xi0.xmcmb3dum.                  mc                16.00k
       10 xi0.xmcbb3dum.                  mc                63.00 
       11 xi0.xmcbb2dum.                  mc                64.00 
       12 xi0.xmctb2dum.                  mc                64.00 
       13 xi0.xmcmb2dum.                  mc                16.26k
       14 xi0.xmctb1dum.                  mc                64.00 
       15 xi0.xmcbb0dum.                  mc                63.00 
       16 xi0.xmcbl.                      mc                 1.00 
       17 xi0.xmcml.                      mc               254.00 
       18 xi0.xmcmb0dum.                  mc                16.00k
       19 xi0.xmcmb1dum.                  mc                16.26k
       20 xi0.xmcbb1dum.                  mc                64.00 
       21 xi0.xmctb0dum.                  mc                63.00 
       22 xi0.xmctl.                      mc                 1.00 
       23 xi0.xwriter.                    write              1.00 
       24 xi0.xwriteb3dum.                write             63.00 
       25 xi0.xwriteb1dum.                write             64.00 
       26 xi0.xwriteb2dum.                write             64.00 
       27 xi0.xwriteb0dum.                write             63.00 
       28 xi0.xwritel.                    write              1.00 
       29 xclk_gen.xgen.                  signal_gen         1.00 
       30 xa0_gen.xgen.                   signal_gen         1.00 
       31 xa255_gen.xgen.                 signal_gen         1.00 
       32 xi0.xwriter.xu0.                inv_pcell_0        1.00 
       33 xi0.xwriter.xu2.                inv_pcell_1        1.00 
       34 xi0.xwriter.xu1.                inv_pcell_1        1.00 
       35 xi0.xwriteb3dum.xu0.            inv_pcell_0       63.00 
       36 xi0.xwriteb3dum.xu2.            inv_pcell_1       63.00 
       37 xi0.xwriteb3dum.xu1.            inv_pcell_1       63.00 
       38 xi0.xwriteb1dum.xu0.            inv_pcell_0       64.00 
       39 xi0.xwriteb1dum.xu2.            inv_pcell_1       64.00 
       40 xi0.xwriteb1dum.xu1.            inv_pcell_1       64.00 
       41 xi0.xwriteb2dum.xu0.            inv_pcell_0       64.00 
       42 xi0.xwriteb2dum.xu2.            inv_pcell_1       64.00 
       43 xi0.xwriteb2dum.xu1.            inv_pcell_1       64.00 
       44 xi0.xwriteb0dum.xu0.            inv_pcell_0       63.00 
       45 xi0.xwriteb0dum.xu2.            inv_pcell_1       63.00 
       46 xi0.xwriteb0dum.xu1.            inv_pcell_1       63.00 
       47 xi0.xwritel.xu0.                inv_pcell_0        1.00 
       48 xi0.xwritel.xu2.                inv_pcell_1        1.00 
       49 xi0.xwritel.xu1.                inv_pcell_1        1.00 
       50 xclk_gen.xgen.x_0.              inv_chain_stimulus
                                                                 1.00 
       51 xa0_gen.xgen.x_0.               inv_chain_stimulus
                                                                 1.00 
       52 xa255_gen.xgen.x_0.             inv_chain_stimulus
                                                                 1.00 
       53 xclk_gen.xgen.x_0.x_0.          inv_stimulus       1.00 
       54 xclk_gen.xgen.x_0.x_1.          inv_stimulus       4.00 
       55 xclk_gen.xgen.x_0.x_2.          inv_stimulus      16.00 
       56 xclk_gen.xgen.x_0.x_3.          inv_stimulus      64.00 
       57 xa0_gen.xgen.x_0.x_0.           inv_stimulus       1.00 
       58 xa0_gen.xgen.x_0.x_1.           inv_stimulus       4.00 
       59 xa0_gen.xgen.x_0.x_2.           inv_stimulus      16.00 
       60 xa0_gen.xgen.x_0.x_3.           inv_stimulus      64.00 
       61 xa255_gen.xgen.x_0.x_0.         inv_stimulus       1.00 
       62 xa255_gen.xgen.x_0.x_1.         inv_stimulus       4.00 
       63 xa255_gen.xgen.x_0.x_2.         inv_stimulus      16.00 
       64 xa255_gen.xgen.x_0.x_3.         inv_stimulus      64.00 


 circuit parameter definitions
  parameter          =  value 

     0:supply                                                  =   1.0000       
     0:tcyc                                                    =   1.0000n      
     0:trf                                                     =  50.0000p      
     0:blpcwidth                                               =  80.0000       
     0:wrenpwvdd                                               =  48.0000       
     0:wrenpwwl                                                =  48.0000       
     0:vdd_wr_value                                            = 800.0000m      
     0:write_core_power                                        =   0.           
     0:vcell_power                                             =   0.           
     0:mem_core_power                                          =   0.           
    53:wp                                                      =  24.0000       
    53:lp                                                      =   2.0000       
    53:wn                                                      =   8.0000       
    53:ln                                                      =   2.0000       
    54:wp                                                      =  24.0000       
    54:lp                                                      =   2.0000       
    54:wn                                                      =   8.0000       
    54:ln                                                      =   2.0000       
    55:wp                                                      =  24.0000       
    55:lp                                                      =   2.0000       
    55:wn                                                      =   8.0000       
    55:ln                                                      =   2.0000       
    56:wp                                                      =  24.0000       
    56:lp                                                      =   2.0000       
    56:wn                                                      =   8.0000       
    56:ln                                                      =   2.0000       
    57:wp                                                      =  24.0000       
    57:lp                                                      =   2.0000       
    57:wn                                                      =   8.0000       
    57:ln                                                      =   2.0000       
    58:wp                                                      =  24.0000       
    58:lp                                                      =   2.0000       
    58:wn                                                      =   8.0000       
    58:ln                                                      =   2.0000       
    59:wp                                                      =  24.0000       
    59:lp                                                      =   2.0000       
    59:wn                                                      =   8.0000       
    59:ln                                                      =   2.0000       
    60:wp                                                      =  24.0000       
    60:lp                                                      =   2.0000       
    60:wn                                                      =   8.0000       
    60:ln                                                      =   2.0000       
    61:wp                                                      =  24.0000       
    61:lp                                                      =   2.0000       
    61:wn                                                      =   8.0000       
    61:ln                                                      =   2.0000       
    62:wp                                                      =  24.0000       
    62:lp                                                      =   2.0000       
    62:wn                                                      =   8.0000       
    62:ln                                                      =   2.0000       
    63:wp                                                      =  24.0000       
    63:lp                                                      =   2.0000       
    63:wn                                                      =   8.0000       
    63:ln                                                      =   2.0000       
    64:wp                                                      =  24.0000       
    64:lp                                                      =   2.0000       
    64:wn                                                      =   8.0000       
    64:ln                                                      =   2.0000       




 constants  - tnom         kt           vt           gapsi        ni
            298.15000    4.1163e-21    25.69184m     1.11562    1.2565e+16 
  **warning** (/usr/class/ee313/ee313_spice_header.h:18) Both nodes of element vgnd are connected together; Line ignored.
  **info** (./stimulus.sp:38) DC voltage reset to initial transient source value              in source        2:vsrc                new dc=  0.0000D+00
 ** warning** associated with encrypted blocks were suppressed

1****** HSPICE -- F-2011.09-SP2 32-BIT (Feb 27 2012) linux ******               
 ******  
 part 2

  ******  circuit element summary tnom=  25.000 temp=  25.000 *****


 **** capacitors
  
  
                                                                      
 element name        8:c2         8:c1         9:c2         9:c1      
 node1               1:net0207    1:net0206    1:net0207    1:net0206 
 node2               0:0          0:0          0:0          0:0       
 model                                                                
 cap eff             5.5440f      5.5440f      1.4080p      1.4080p   
 tc1                 0.           0.           0.           0.        
 tc2                 0.           0.           0.           0.        
 scale               1.0000       1.0000       1.0000       1.0000    
 ic                  0.           0.           0.           0.        
 m                  63.0000      63.0000      16.0000k     16.0000k   
 w                   0.           0.           0.           0.        
 l                   0.           0.           0.           0.        
 temp               25.0000      25.0000      25.0000      25.0000    
  
  
                                                                      
 element name       10:c2        10:c1        11:c2        11:c1      
 node1               1:net0207    1:net0206    1:net0163    1:net0162 
 node2               0:0          0:0          0:0          0:0       
 model                                                                
 cap eff             5.5440f      5.5440f      5.6320f      5.6320f   
 tc1                 0.           0.           0.           0.        
 tc2                 0.           0.           0.           0.        
 scale               1.0000       1.0000       1.0000       1.0000    
 ic                  0.           0.           0.           0.        
 m                  63.0000      63.0000      64.0000      64.0000    
 w                   0.           0.           0.           0.        
 l                   0.           0.           0.           0.        
 temp               25.0000      25.0000      25.0000      25.0000    
  
  
                                                                      
 element name       12:c2        12:c1        13:c2        13:c1      
 node1               1:net0163    1:net0162    1:net0163    1:net0162 
 node2               0:0          0:0          0:0          0:0       
 model                                                                
 cap eff             5.6320f      5.6320f      1.4309p      1.4309p   
 tc1                 0.           0.           0.           0.        
 tc2                 0.           0.           0.           0.        
 scale               1.0000       1.0000       1.0000       1.0000    
 ic                  0.           0.           0.           0.        
 m                  64.0000      64.0000      16.2600k     16.2600k   
 w                   0.           0.           0.           0.        
 l                   0.           0.           0.           0.        
 temp               25.0000      25.0000      25.0000      25.0000    
  
  
                                                                      
 element name       14:c2        14:c1        15:c2        15:c1      
 node1               1:net0180    1:net0136    1:net0234    1:net0233 
 node2               0:0          0:0          0:0          0:0       
 model                                                                
 cap eff             5.6320f      5.6320f      5.5440f      5.5440f   
 tc1                 0.           0.           0.           0.        
 tc2                 0.           0.           0.           0.        
 scale               1.0000       1.0000       1.0000       1.0000    
 ic                  0.           0.           0.           0.        
 m                  64.0000      64.0000      63.0000      63.0000    
 w                   0.           0.           0.           0.        
 l                   0.           0.           0.           0.        
 temp               25.0000      25.0000      25.0000      25.0000    
  
  
                                                                      
 element name       18:c2        18:c1        19:c2        19:c1      
 node1               1:net0234    1:net0233    1:net0180    1:net0136 
 node2               0:0          0:0          0:0          0:0       
 model                                                                
 cap eff             1.4080p      1.4080p      1.4309p      1.4309p   
 tc1                 0.           0.           0.           0.        
 tc2                 0.           0.           0.           0.        
 scale               1.0000       1.0000       1.0000       1.0000    
 ic                  0.           0.           0.           0.        
 m                  16.0000k     16.0000k     16.2600k     16.2600k   
 w                   0.           0.           0.           0.        
 l                   0.           0.           0.           0.        
 temp               25.0000      25.0000      25.0000      25.0000    
  
  
                                                                      
 element name       20:c2        20:c1        21:c2        21:c1      
 node1               1:net0180    1:net0136    1:net0234    1:net0233 
 node2               0:0          0:0          0:0          0:0       
 model                                                                
 cap eff             5.6320f      5.6320f      5.5440f      5.5440f   
 tc1                 0.           0.           0.           0.        
 tc2                 0.           0.           0.           0.        
 scale               1.0000       1.0000       1.0000       1.0000    
 ic                  0.           0.           0.           0.        
 m                  64.0000      64.0000      63.0000      63.0000    
 w                   0.           0.           0.           0.        
 l                   0.           0.           0.           0.        
 temp               25.0000      25.0000      25.0000      25.0000    


 **** voltage-controlled voltage sources
      name        +             -          dimension  function  scale
       29:e_0            29:net_3           0:0              1      poly       1.    
       30:e_0            30:net_3           0:0              1      poly       1.    
       31:e_0            31:net_3           0:0              1      poly       1.    


 **** current-controlled current sources
      name        +             -          dimension  function  multiplier
       29:f_0            29:net_4           0:0              1      poly       1.    
       29:f_1            29:net_4           0:0              1      poly       1.    
       30:f_0            30:net_4           0:0              1      poly       1.    
       30:f_1            30:net_4           0:0              1      poly       1.    
       31:f_0            31:net_4           0:0              1      poly       1.    
       31:f_1            31:net_4           0:0              1      poly       1.    


 **** independent sources

     name         node1        node2      dc volt    ac mag    ac phase    type
  v_supply  vdd               0                    1.0000     0.         0.      dc   
  v_supply1  vdd!              0                    1.0000     0.         0.      dc   
  vvcell  vcell             0                  900.0000m    0.         0.      dc   
 xclk_gen.vsrc xclk_gen.src               0                    0.         0.         0.      pulse
             initial value     0.     
             pulsed value.     1.0000 
             delay time...   500.0000p
             risetime.....    50.0000p
             falltime.....    50.0000p
             width........   450.0000p
             period.......     1.0000n

 xa0_gen.vsrc xa0_gen.src               0                    0.         0.         0.      pulse
             initial value     0.     
             pulsed value.     1.0000 
             delay time...   375.0000p
             risetime.....    50.0000p
             falltime.....    50.0000p
             width........   950.0000p
             period.......     2.0000n

 xa255_gen.vsrc xa255_gen.src               0                    0.         0.         0.      pulse
             initial value     0.     
             pulsed value.     1.0000 
             delay time...     1.3750n
             risetime.....    50.0000p
             falltime.....    50.0000p
             width........   950.0000p
             period.......     2.0000n

 xclk_gen.xgen.v_monitor xclk_gen.xgen.net_4             0                    1.0000     0.         0.      dc   
 xclk_gen.xgen.v_sense xclk_gen.xgen.net_3             ck                   0.         0.         0.      dc   
 xa0_gen.xgen.v_monitor xa0_gen.xgen.net_4             0                    1.0000     0.         0.      dc   
 xa0_gen.xgen.v_sense xa0_gen.xgen.net_3             a0                   0.         0.         0.      dc   
 xa255_gen.xgen.v_monitor xa255_gen.xgen.net_4             0                    1.0000     0.         0.      dc   
 xa255_gen.xgen.v_sense xa255_gen.xgen.net_3             a255                 0.         0.         0.      dc   
 xclk_gen.xgen.x_0.x_0.vstimulus_supply xclk_gen.xgen.x_0.x_0.vdd_stimulus      0                    1.0000     0.         0.      dc   
 xclk_gen.xgen.x_0.x_1.vstimulus_supply xclk_gen.xgen.x_0.x_1.vdd_stimulus      0                    1.0000     0.         0.      dc   
 xclk_gen.xgen.x_0.x_2.vstimulus_supply xclk_gen.xgen.x_0.x_2.vdd_stimulus      0                    1.0000     0.         0.      dc   
 xclk_gen.xgen.x_0.x_3.vstimulus_supply xclk_gen.xgen.x_0.x_3.vdd_stimulus      0                    1.0000     0.         0.      dc   
 xa0_gen.xgen.x_0.x_0.vstimulus_supply xa0_gen.xgen.x_0.x_0.vdd_stimulus      0                    1.0000     0.         0.      dc   
 xa0_gen.xgen.x_0.x_1.vstimulus_supply xa0_gen.xgen.x_0.x_1.vdd_stimulus      0                    1.0000     0.         0.      dc   
 xa0_gen.xgen.x_0.x_2.vstimulus_supply xa0_gen.xgen.x_0.x_2.vdd_stimulus      0                    1.0000     0.         0.      dc   
 xa0_gen.xgen.x_0.x_3.vstimulus_supply xa0_gen.xgen.x_0.x_3.vdd_stimulus      0                    1.0000     0.         0.      dc   
 xa255_gen.xgen.x_0.x_0.vstimulus_supply xa255_gen.xgen.x_0.x_0.vdd_stimulus      0                    1.0000     0.         0.      dc   
 xa255_gen.xgen.x_0.x_1.vstimulus_supply xa255_gen.xgen.x_0.x_1.vdd_stimulus      0                    1.0000     0.         0.      dc   
 xa255_gen.xgen.x_0.x_2.vstimulus_supply xa255_gen.xgen.x_0.x_2.vdd_stimulus      0                    1.0000     0.         0.      dc   
 xa255_gen.xgen.x_0.x_3.vstimulus_supply xa255_gen.xgen.x_0.x_3.vdd_stimulus      0                    1.0000     0.         0.      dc   


 **** mosfets


 **** BSIM4 Model (Level 54)
  
  
                                                              
 element name        5:m5       5:m4       5:m1       5:m0    
 drain               5:bit      5:bit_b    0:0        0:0     
 gate                5:bit_b    5:bit      0:0        0:0     
 source              0:0        0:0        5:bit_b    5:bit   
 bulk                0:0        0:0        0:0        0:0     
 model               0:nmos     0:nmos     0:nmos     0:nmos  
 w eff             122.0000n  122.0000n   78.0000n   78.0000n 
 l eff              29.0000n   29.0000n   29.0000n   29.0000n 
 rd eff              0.         0.         0.         0.      
 rs eff              0.         0.         0.         0.      
 cdsat              11.4887a   11.4887a    7.8700a    7.8700a 
 cssat              11.4887a   11.4887a    7.8700a    7.8700a 
 capbd             178.5462a  178.5462a  133.6681a  133.6681a 
 capbs             152.1990a  152.1990a  116.1033a  116.1033a 
 temp               25.0000    25.0000    25.0000    25.0000  
 aic                                                          
 nf                  1.0000     1.0000     1.0000     1.0000  
 min                 0.         0.         0.         0.      
 rbdb               15.0000    15.0000    15.0000    15.0000  
 rbsb               15.0000    15.0000    15.0000    15.0000  
 rbpb                5.0000     5.0000     5.0000     5.0000  
 rbps               15.0000    15.0000    15.0000    15.0000  
 rbpd               15.0000    15.0000    15.0000    15.0000  
 trnqsmod            0.         0.         0.         0.      
 acnqsmod            0.         0.         0.         0.      
 rbodymod            1.0000     1.0000     1.0000     1.0000  
 rgatemod            1.0000     1.0000     1.0000     1.0000  
 geomod              0.         0.         0.         0.      
 rgeomod             0.         0.         0.         0.      
 delvto              0.         0.         0.         0.      
 mulu0               1.0000     1.0000     1.0000     1.0000  
 delk1               0.         0.         0.         0.      
 delnfct             0.         0.         0.         0.      
 deltox              0.         0.         0.         0.      
 sa                  0.         0.         0.         0.      
 sb                  0.         0.         0.         0.      
 sd                  0.         0.         0.         0.      
 saeff               0.         0.         0.         0.      
 sbeff               0.         0.         0.         0.      
  
  
                                                              
 element name        5:m2       5:m3       6:m5       6:m4    
 drain               5:bit_b    5:bit      6:bit      6:bit_b 
 gate                5:bit      5:bit_b    6:bit_b    6:bit   
 source              0:vcell    0:vcell    0:0        0:0     
 bulk                0:vdd!     0:vdd!     0:0        0:0     
 model               0:pmos     0:pmos     0:nmos     0:nmos  
 w eff              78.0000n   78.0000n   30.9880u   30.9880u 
 l eff              29.0000n   29.0000n   29.0000n   29.0000n 
 rd eff              0.         0.         0.         0.      
 rs eff              0.         0.         0.         0.      
 cdsat               7.8700a    7.8700a    2.9181f    2.9181f 
 cssat               7.8700a    7.8700a    2.9181f    2.9181f 
 capbd             133.6681a  133.6681a  178.5462a  178.5462a 
 capbs             116.1033a  116.1033a  152.1990a  152.1990a 
 temp               25.0000    25.0000    25.0000    25.0000  
 aic                                                          
 nf                  1.0000     1.0000     1.0000     1.0000  
 min                 0.         0.         0.         0.      
 rbdb               15.0000    15.0000    15.0000    15.0000  
 rbsb               15.0000    15.0000    15.0000    15.0000  
 rbpb                5.0000     5.0000     5.0000     5.0000  
 rbps               15.0000    15.0000    15.0000    15.0000  
 rbpd               15.0000    15.0000    15.0000    15.0000  
 trnqsmod            0.         0.         0.         0.      
 acnqsmod            0.         0.         0.         0.      
 rbodymod            1.0000     1.0000     1.0000     1.0000  
 rgatemod            1.0000     1.0000     1.0000     1.0000  
 geomod              0.         0.         0.         0.      
 rgeomod             0.         0.         0.         0.      
 delvto              0.         0.         0.         0.      
 mulu0               1.0000     1.0000     1.0000     1.0000  
 delk1               0.         0.         0.         0.      
 delnfct             0.         0.         0.         0.      
 deltox              0.         0.         0.         0.      
 sa                  0.         0.         0.         0.      
 sb                  0.         0.         0.         0.      
 sd                  0.         0.         0.         0.      
 saeff               0.         0.         0.         0.      
 sbeff               0.         0.         0.         0.      
  
  
                                                              
 element name        6:m1       6:m0       6:m2       6:m3    
 drain               0:0        0:0        6:bit_b    6:bit   
 gate                0:0        0:0        6:bit      6:bit_b 
 source              6:bit_b    6:bit      0:vcell    0:vcell 
 bulk                0:0        0:0        0:vdd!     0:vdd!  
 model               0:nmos     0:nmos     0:pmos     0:pmos  
 w eff              19.8120u   19.8120u   19.8120u   19.8120u 
 l eff              29.0000n   29.0000n   29.0000n   29.0000n 
 rd eff              0.         0.         0.         0.      
 rs eff              0.         0.         0.         0.      
 cdsat               1.9990f    1.9990f    1.9990f    1.9990f 
 cssat               1.9990f    1.9990f    1.9990f    1.9990f 
 capbd             133.6681a  133.6681a  133.6681a  133.6681a 
 capbs             116.1033a  116.1033a  116.1033a  116.1033a 
 temp               25.0000    25.0000    25.0000    25.0000  
 aic                                                          
 nf                  1.0000     1.0000     1.0000     1.0000  
 min                 0.         0.         0.         0.      
 rbdb               15.0000    15.0000    15.0000    15.0000  
 rbsb               15.0000    15.0000    15.0000    15.0000  
 rbpb                5.0000     5.0000     5.0000     5.0000  
 rbps               15.0000    15.0000    15.0000    15.0000  
 rbpd               15.0000    15.0000    15.0000    15.0000  
 trnqsmod            0.         0.         0.         0.      
 acnqsmod            0.         0.         0.         0.      
 rbodymod            1.0000     1.0000     1.0000     1.0000  
 rgatemod            1.0000     1.0000     1.0000     1.0000  
 geomod              0.         0.         0.         0.      
 rgeomod             0.         0.         0.         0.      
 delvto              0.         0.         0.         0.      
 mulu0               1.0000     1.0000     1.0000     1.0000  
 delk1               0.         0.         0.         0.      
 delnfct             0.         0.         0.         0.      
 deltox              0.         0.         0.         0.      
 sa                  0.         0.         0.         0.      
 sb                  0.         0.         0.         0.      
 sd                  0.         0.         0.         0.      
 saeff               0.         0.         0.         0.      
 sbeff               0.         0.         0.         0.      
  
  
                                                              
 element name        7:m5       7:m4       7:m1       7:m0    
 drain               7:bit      7:bit_b    0:0        0:0     
 gate                7:bit_b    7:bit      0:0        0:0     
 source              0:0        0:0        7:bit_b    7:bit   
 bulk                0:0        0:0        0:0        0:0     
 model               0:nmos     0:nmos     0:nmos     0:nmos  
 w eff             122.0000n  122.0000n   78.0000n   78.0000n 
 l eff              29.0000n   29.0000n   29.0000n   29.0000n 
 rd eff              0.         0.         0.         0.      
 rs eff              0.         0.         0.         0.      
 cdsat              11.4887a   11.4887a    7.8700a    7.8700a 
 cssat              11.4887a   11.4887a    7.8700a    7.8700a 
 capbd             178.5462a  178.5462a  133.6681a  133.6681a 
 capbs             152.1990a  152.1990a  116.1033a  116.1033a 
 temp               25.0000    25.0000    25.0000    25.0000  
 aic                                                          
 nf                  1.0000     1.0000     1.0000     1.0000  
 min                 0.         0.         0.         0.      
 rbdb               15.0000    15.0000    15.0000    15.0000  
 rbsb               15.0000    15.0000    15.0000    15.0000  
 rbpb                5.0000     5.0000     5.0000     5.0000  
 rbps               15.0000    15.0000    15.0000    15.0000  
 rbpd               15.0000    15.0000    15.0000    15.0000  
 trnqsmod            0.         0.         0.         0.      
 acnqsmod            0.         0.         0.         0.      
 rbodymod            1.0000     1.0000     1.0000     1.0000  
 rgatemod            1.0000     1.0000     1.0000     1.0000  
 geomod              0.         0.         0.         0.      
 rgeomod             0.         0.         0.         0.      
 delvto              0.         0.         0.         0.      
 mulu0               1.0000     1.0000     1.0000     1.0000  
 delk1               0.         0.         0.         0.      
 delnfct             0.         0.         0.         0.      
 deltox              0.         0.         0.         0.      
 sa                  0.         0.         0.         0.      
 sb                  0.         0.         0.         0.      
 sd                  0.         0.         0.         0.      
 saeff               0.         0.         0.         0.      
 sbeff               0.         0.         0.         0.      
  
  
                                                              
 element name        7:m2       7:m3       8:m5       8:m4    
 drain               7:bit_b    7:bit      8:bit      8:bit_b 
 gate                7:bit      7:bit_b    8:bit_b    8:bit   
 source              0:vcell    0:vcell    0:0        0:0     
 bulk                0:vdd!     0:vdd!     0:0        0:0     
 model               0:pmos     0:pmos     0:nmos     0:nmos  
 w eff              78.0000n   78.0000n    7.6860u    7.6860u 
 l eff              29.0000n   29.0000n   29.0000n   29.0000n 
 rd eff              0.         0.         0.         0.      
 rs eff              0.         0.         0.         0.      
 cdsat               7.8700a    7.8700a  723.7858a  723.7858a 
 cssat               7.8700a    7.8700a  723.7858a  723.7858a 
 capbd             133.6681a  133.6681a  178.5462a  178.5462a 
 capbs             116.1033a  116.1033a  152.1990a  152.1990a 
 temp               25.0000    25.0000    25.0000    25.0000  
 aic                                                          
 nf                  1.0000     1.0000     1.0000     1.0000  
 min                 0.         0.         0.         0.      
 rbdb               15.0000    15.0000    15.0000    15.0000  
 rbsb               15.0000    15.0000    15.0000    15.0000  
 rbpb                5.0000     5.0000     5.0000     5.0000  
 rbps               15.0000    15.0000    15.0000    15.0000  
 rbpd               15.0000    15.0000    15.0000    15.0000  
 trnqsmod            0.         0.         0.         0.      
 acnqsmod            0.         0.         0.         0.      
 rbodymod            1.0000     1.0000     1.0000     1.0000  
 rgatemod            1.0000     1.0000     1.0000     1.0000  
 geomod              0.         0.         0.         0.      
 rgeomod             0.         0.         0.         0.      
 delvto              0.         0.         0.         0.      
 mulu0               1.0000     1.0000     1.0000     1.0000  
 delk1               0.         0.         0.         0.      
 delnfct             0.         0.         0.         0.      
 deltox              0.         0.         0.         0.      
 sa                  0.         0.         0.         0.      
 sb                  0.         0.         0.         0.      
 sd                  0.         0.         0.         0.      
 saeff               0.         0.         0.         0.      
 sbeff               0.         0.         0.         0.      
  
  
                                                                  
 element name        8:m1         8:m0         8:m2       8:m3    
 drain               1:net0206    1:net0207    8:bit_b    8:bit   
 gate                0:0          0:0          8:bit      8:bit_b 
 source              8:bit_b      8:bit        0:vcell    0:vcell 
 bulk                0:0          0:0          0:vdd!     0:vdd!  
 model               0:nmos       0:nmos       0:pmos     0:pmos  
 w eff               4.9140u      4.9140u      4.9140u    4.9140u 
 l eff              29.0000n     29.0000n     29.0000n   29.0000n 
 rd eff              0.           0.           0.         0.      
 rs eff              0.           0.           0.         0.      
 cdsat             495.8092a    495.8092a    495.8092a  495.8092a 
 cssat             495.8092a    495.8092a    495.8092a  495.8092a 
 capbd             133.6681a    133.6681a    133.6681a  133.6681a 
 capbs             116.1033a    116.1033a    116.1033a  116.1033a 
 temp               25.0000      25.0000      25.0000    25.0000  
 aic                                                              
 nf                  1.0000       1.0000       1.0000     1.0000  
 min                 0.           0.           0.         0.      
 rbdb               15.0000      15.0000      15.0000    15.0000  
 rbsb               15.0000      15.0000      15.0000    15.0000  
 rbpb                5.0000       5.0000       5.0000     5.0000  
 rbps               15.0000      15.0000      15.0000    15.0000  
 rbpd               15.0000      15.0000      15.0000    15.0000  
 trnqsmod            0.           0.           0.         0.      
 acnqsmod            0.           0.           0.         0.      
 rbodymod            1.0000       1.0000       1.0000     1.0000  
 rgatemod            1.0000       1.0000       1.0000     1.0000  
 geomod              0.           0.           0.         0.      
 rgeomod             0.           0.           0.         0.      
 delvto              0.           0.           0.         0.      
 mulu0               1.0000       1.0000       1.0000     1.0000  
 delk1               0.           0.           0.         0.      
 delnfct             0.           0.           0.         0.      
 deltox              0.           0.           0.         0.      
 sa                  0.           0.           0.         0.      
 sb                  0.           0.           0.         0.      
 sd                  0.           0.           0.         0.      
 saeff               0.           0.           0.         0.      
 sbeff               0.           0.           0.         0.      
  
  
                                                                  
 element name        9:m5       9:m4       9:m1         9:m0      
 drain               9:bit      9:bit_b    1:net0206    1:net0207 
 gate                9:bit_b    9:bit      0:0          0:0       
 source              0:0        0:0        9:bit_b      9:bit     
 bulk                0:0        0:0        0:0          0:0       
 model               0:nmos     0:nmos     0:nmos       0:nmos    
 w eff               1.9520m    1.9520m    1.2480m      1.2480m   
 l eff              29.0000n   29.0000n   29.0000n     29.0000n   
 rd eff              0.         0.         0.           0.        
 rs eff              0.         0.         0.           0.        
 cdsat             183.8186f  183.8186f  125.9198f    125.9198f   
 cssat             183.8186f  183.8186f  125.9198f    125.9198f   
 capbd             178.5462a  178.5462a  133.6681a    133.6681a   
 capbs             152.1990a  152.1990a  116.1033a    116.1033a   
 temp               25.0000    25.0000    25.0000      25.0000    
 aic                                                              
 nf                  1.0000     1.0000     1.0000       1.0000    
 min                 0.         0.         0.           0.        
 rbdb               15.0000    15.0000    15.0000      15.0000    
 rbsb               15.0000    15.0000    15.0000      15.0000    
 rbpb                5.0000     5.0000     5.0000       5.0000    
 rbps               15.0000    15.0000    15.0000      15.0000    
 rbpd               15.0000    15.0000    15.0000      15.0000    
 trnqsmod            0.         0.         0.           0.        
 acnqsmod            0.         0.         0.           0.        
 rbodymod            1.0000     1.0000     1.0000       1.0000    
 rgatemod            1.0000     1.0000     1.0000       1.0000    
 geomod              0.         0.         0.           0.        
 rgeomod             0.         0.         0.           0.        
 delvto              0.         0.         0.           0.        
 mulu0               1.0000     1.0000     1.0000       1.0000    
 delk1               0.         0.         0.           0.        
 delnfct             0.         0.         0.           0.        
 deltox              0.         0.         0.           0.        
 sa                  0.         0.         0.           0.        
 sb                  0.         0.         0.           0.        
 sd                  0.         0.         0.           0.        
 saeff               0.         0.         0.           0.        
 sbeff               0.         0.         0.           0.        
  
  
                                                              
 element name        9:m2       9:m3      10:m5      10:m4    
 drain               9:bit_b    9:bit     10:bit     10:bit_b 
 gate                9:bit      9:bit_b   10:bit_b   10:bit   
 source              0:vcell    0:vcell    0:0        0:0     
 bulk                0:vdd!     0:vdd!     0:0        0:0     
 model               0:pmos     0:pmos     0:nmos     0:nmos  
 w eff               1.2480m    1.2480m    7.6860u    7.6860u 
 l eff              29.0000n   29.0000n   29.0000n   29.0000n 
 rd eff              0.         0.         0.         0.      
 rs eff              0.         0.         0.         0.      
 cdsat             125.9198f  125.9198f  723.7858a  723.7858a 
 cssat             125.9198f  125.9198f  723.7858a  723.7858a 
 capbd             133.6681a  133.6681a  178.5462a  178.5462a 
 capbs             116.1033a  116.1033a  152.1990a  152.1990a 
 temp               25.0000    25.0000    25.0000    25.0000  
 aic                                                          
 nf                  1.0000     1.0000     1.0000     1.0000  
 min                 0.         0.         0.         0.      
 rbdb               15.0000    15.0000    15.0000    15.0000  
 rbsb               15.0000    15.0000    15.0000    15.0000  
 rbpb                5.0000     5.0000     5.0000     5.0000  
 rbps               15.0000    15.0000    15.0000    15.0000  
 rbpd               15.0000    15.0000    15.0000    15.0000  
 trnqsmod            0.         0.         0.         0.      
 acnqsmod            0.         0.         0.         0.      
 rbodymod            1.0000     1.0000     1.0000     1.0000  
 rgatemod            1.0000     1.0000     1.0000     1.0000  
 geomod              0.         0.         0.         0.      
 rgeomod             0.         0.         0.         0.      
 delvto              0.         0.         0.         0.      
 mulu0               1.0000     1.0000     1.0000     1.0000  
 delk1               0.         0.         0.         0.      
 delnfct             0.         0.         0.         0.      
 deltox              0.         0.         0.         0.      
 sa                  0.         0.         0.         0.      
 sb                  0.         0.         0.         0.      
 sd                  0.         0.         0.         0.      
 saeff               0.         0.         0.         0.      
 sbeff               0.         0.         0.         0.      
  
  
                                                                  
 element name       10:m1        10:m0        10:m2      10:m3    
 drain               1:net0206    1:net0207   10:bit_b   10:bit   
 gate                0:0          0:0         10:bit     10:bit_b 
 source             10:bit_b     10:bit        0:vcell    0:vcell 
 bulk                0:0          0:0          0:vdd!     0:vdd!  
 model               0:nmos       0:nmos       0:pmos     0:pmos  
 w eff               4.9140u      4.9140u      4.9140u    4.9140u 
 l eff              29.0000n     29.0000n     29.0000n   29.0000n 
 rd eff              0.           0.           0.         0.      
 rs eff              0.           0.           0.         0.      
 cdsat             495.8092a    495.8092a    495.8092a  495.8092a 
 cssat             495.8092a    495.8092a    495.8092a  495.8092a 
 capbd             133.6681a    133.6681a    133.6681a  133.6681a 
 capbs             116.1033a    116.1033a    116.1033a  116.1033a 
 temp               25.0000      25.0000      25.0000    25.0000  
 aic                                                              
 nf                  1.0000       1.0000       1.0000     1.0000  
 min                 0.           0.           0.         0.      
 rbdb               15.0000      15.0000      15.0000    15.0000  
 rbsb               15.0000      15.0000      15.0000    15.0000  
 rbpb                5.0000       5.0000       5.0000     5.0000  
 rbps               15.0000      15.0000      15.0000    15.0000  
 rbpd               15.0000      15.0000      15.0000    15.0000  
 trnqsmod            0.           0.           0.         0.      
 acnqsmod            0.           0.           0.         0.      
 rbodymod            1.0000       1.0000       1.0000     1.0000  
 rgatemod            1.0000       1.0000       1.0000     1.0000  
 geomod              0.           0.           0.         0.      
 rgeomod             0.           0.           0.         0.      
 delvto              0.           0.           0.         0.      
 mulu0               1.0000       1.0000       1.0000     1.0000  
 delk1               0.           0.           0.         0.      
 delnfct             0.           0.           0.         0.      
 deltox              0.           0.           0.         0.      
 sa                  0.           0.           0.         0.      
 sb                  0.           0.           0.         0.      
 sd                  0.           0.           0.         0.      
 saeff               0.           0.           0.         0.      
 sbeff               0.           0.           0.         0.      
  
  
                                                                  
 element name       11:m5      11:m4      11:m1        11:m0      
 drain              11:bit     11:bit_b    1:net0162    1:net0163 
 gate               11:bit_b   11:bit      0:0          0:0       
 source              0:0        0:0       11:bit_b     11:bit     
 bulk                0:0        0:0        0:0          0:0       
 model               0:nmos     0:nmos     0:nmos       0:nmos    
 w eff               7.8080u    7.8080u    4.9920u      4.9920u   
 l eff              29.0000n   29.0000n   29.0000n     29.0000n   
 rd eff              0.         0.         0.           0.        
 rs eff              0.         0.         0.           0.        
 cdsat             735.2745a  735.2745a  503.6792a    503.6792a   
 cssat             735.2745a  735.2745a  503.6792a    503.6792a   
 capbd             178.5462a  178.5462a  133.6681a    133.6681a   
 capbs             152.1990a  152.1990a  116.1033a    116.1033a   
 temp               25.0000    25.0000    25.0000      25.0000    
 aic                                                              
 nf                  1.0000     1.0000     1.0000       1.0000    
 min                 0.         0.         0.           0.        
 rbdb               15.0000    15.0000    15.0000      15.0000    
 rbsb               15.0000    15.0000    15.0000      15.0000    
 rbpb                5.0000     5.0000     5.0000       5.0000    
 rbps               15.0000    15.0000    15.0000      15.0000    
 rbpd               15.0000    15.0000    15.0000      15.0000    
 trnqsmod            0.         0.         0.           0.        
 acnqsmod            0.         0.         0.           0.        
 rbodymod            1.0000     1.0000     1.0000       1.0000    
 rgatemod            1.0000     1.0000     1.0000       1.0000    
 geomod              0.         0.         0.           0.        
 rgeomod             0.         0.         0.           0.        
 delvto              0.         0.         0.           0.        
 mulu0               1.0000     1.0000     1.0000       1.0000    
 delk1               0.         0.         0.           0.        
 delnfct             0.         0.         0.           0.        
 deltox              0.         0.         0.           0.        
 sa                  0.         0.         0.           0.        
 sb                  0.         0.         0.           0.        
 sd                  0.         0.         0.           0.        
 saeff               0.         0.         0.           0.        
 sbeff               0.         0.         0.           0.        
  
  
                                                              
 element name       11:m2      11:m3      12:m5      12:m4    
 drain              11:bit_b   11:bit     12:bit     12:bit_b 
 gate               11:bit     11:bit_b   12:bit_b   12:bit   
 source              0:vcell    0:vcell    0:0        0:0     
 bulk                0:vdd!     0:vdd!     0:0        0:0     
 model               0:pmos     0:pmos     0:nmos     0:nmos  
 w eff               4.9920u    4.9920u    7.8080u    7.8080u 
 l eff              29.0000n   29.0000n   29.0000n   29.0000n 
 rd eff              0.         0.         0.         0.      
 rs eff              0.         0.         0.         0.      
 cdsat             503.6792a  503.6792a  735.2745a  735.2745a 
 cssat             503.6792a  503.6792a  735.2745a  735.2745a 
 capbd             133.6681a  133.6681a  178.5462a  178.5462a 
 capbs             116.1033a  116.1033a  152.1990a  152.1990a 
 temp               25.0000    25.0000    25.0000    25.0000  
 aic                                                          
 nf                  1.0000     1.0000     1.0000     1.0000  
 min                 0.         0.         0.         0.      
 rbdb               15.0000    15.0000    15.0000    15.0000  
 rbsb               15.0000    15.0000    15.0000    15.0000  
 rbpb                5.0000     5.0000     5.0000     5.0000  
 rbps               15.0000    15.0000    15.0000    15.0000  
 rbpd               15.0000    15.0000    15.0000    15.0000  
 trnqsmod            0.         0.         0.         0.      
 acnqsmod            0.         0.         0.         0.      
 rbodymod            1.0000     1.0000     1.0000     1.0000  
 rgatemod            1.0000     1.0000     1.0000     1.0000  
 geomod              0.         0.         0.         0.      
 rgeomod             0.         0.         0.         0.      
 delvto              0.         0.         0.         0.      
 mulu0               1.0000     1.0000     1.0000     1.0000  
 delk1               0.         0.         0.         0.      
 delnfct             0.         0.         0.         0.      
 deltox              0.         0.         0.         0.      
 sa                  0.         0.         0.         0.      
 sb                  0.         0.         0.         0.      
 sd                  0.         0.         0.         0.      
 saeff               0.         0.         0.         0.      
 sbeff               0.         0.         0.         0.      
  
  
                                                                  
 element name       12:m1        12:m0        12:m2      12:m3    
 drain               1:net0162    1:net0163   12:bit_b   12:bit   
 gate                0:0          0:0         12:bit     12:bit_b 
 source             12:bit_b     12:bit        0:vcell    0:vcell 
 bulk                0:0          0:0          0:vdd!     0:vdd!  
 model               0:nmos       0:nmos       0:pmos     0:pmos  
 w eff               4.9920u      4.9920u      4.9920u    4.9920u 
 l eff              29.0000n     29.0000n     29.0000n   29.0000n 
 rd eff              0.           0.           0.         0.      
 rs eff              0.           0.           0.         0.      
 cdsat             503.6792a    503.6792a    503.6792a  503.6792a 
 cssat             503.6792a    503.6792a    503.6792a  503.6792a 
 capbd             133.6681a    133.6681a    133.6681a  133.6681a 
 capbs             116.1033a    116.1033a    116.1033a  116.1033a 
 temp               25.0000      25.0000      25.0000    25.0000  
 aic                                                              
 nf                  1.0000       1.0000       1.0000     1.0000  
 min                 0.           0.           0.         0.      
 rbdb               15.0000      15.0000      15.0000    15.0000  
 rbsb               15.0000      15.0000      15.0000    15.0000  
 rbpb                5.0000       5.0000       5.0000     5.0000  
 rbps               15.0000      15.0000      15.0000    15.0000  
 rbpd               15.0000      15.0000      15.0000    15.0000  
 trnqsmod            0.           0.           0.         0.      
 acnqsmod            0.           0.           0.         0.      
 rbodymod            1.0000       1.0000       1.0000     1.0000  
 rgatemod            1.0000       1.0000       1.0000     1.0000  
 geomod              0.           0.           0.         0.      
 rgeomod             0.           0.           0.         0.      
 delvto              0.           0.           0.         0.      
 mulu0               1.0000       1.0000       1.0000     1.0000  
 delk1               0.           0.           0.         0.      
 delnfct             0.           0.           0.         0.      
 deltox              0.           0.           0.         0.      
 sa                  0.           0.           0.         0.      
 sb                  0.           0.           0.         0.      
 sd                  0.           0.           0.         0.      
 saeff               0.           0.           0.         0.      
 sbeff               0.           0.           0.         0.      
  
  
                                                                  
 element name       13:m5      13:m4      13:m1        13:m0      
 drain              13:bit     13:bit_b    1:net0162    1:net0163 
 gate               13:bit_b   13:bit      0:0          0:0       
 source              0:0        0:0       13:bit_b     13:bit     
 bulk                0:0        0:0        0:0          0:0       
 model               0:nmos     0:nmos     0:nmos       0:nmos    
 w eff               1.9837m    1.9837m    1.2683m      1.2683m   
 l eff              29.0000n   29.0000n   29.0000n     29.0000n   
 rd eff              0.         0.         0.           0.        
 rs eff              0.         0.         0.           0.        
 cdsat             186.8057f  186.8057f  127.9660f    127.9660f   
 cssat             186.8057f  186.8057f  127.9660f    127.9660f   
 capbd             178.5462a  178.5462a  133.6681a    133.6681a   
 capbs             152.1990a  152.1990a  116.1033a    116.1033a   
 temp               25.0000    25.0000    25.0000      25.0000    
 aic                                                              
 nf                  1.0000     1.0000     1.0000       1.0000    
 min                 0.         0.         0.           0.        
 rbdb               15.0000    15.0000    15.0000      15.0000    
 rbsb               15.0000    15.0000    15.0000      15.0000    
 rbpb                5.0000     5.0000     5.0000       5.0000    
 rbps               15.0000    15.0000    15.0000      15.0000    
 rbpd               15.0000    15.0000    15.0000      15.0000    
 trnqsmod            0.         0.         0.           0.        
 acnqsmod            0.         0.         0.           0.        
 rbodymod            1.0000     1.0000     1.0000       1.0000    
 rgatemod            1.0000     1.0000     1.0000       1.0000    
 geomod              0.         0.         0.           0.        
 rgeomod             0.         0.         0.           0.        
 delvto              0.         0.         0.           0.        
 mulu0               1.0000     1.0000     1.0000       1.0000    
 delk1               0.         0.         0.           0.        
 delnfct             0.         0.         0.           0.        
 deltox              0.         0.         0.           0.        
 sa                  0.         0.         0.           0.        
 sb                  0.         0.         0.           0.        
 sd                  0.         0.         0.           0.        
 saeff               0.         0.         0.           0.        
 sbeff               0.         0.         0.           0.        
  
  
                                                              
 element name       13:m2      13:m3      14:m5      14:m4    
 drain              13:bit_b   13:bit     14:bit     14:bit_b 
 gate               13:bit     13:bit_b   14:bit_b   14:bit   
 source              0:vcell    0:vcell    0:0        0:0     
 bulk                0:vdd!     0:vdd!     0:0        0:0     
 model               0:pmos     0:pmos     0:nmos     0:nmos  
 w eff               1.2683m    1.2683m    7.8080u    7.8080u 
 l eff              29.0000n   29.0000n   29.0000n   29.0000n 
 rd eff              0.         0.         0.         0.      
 rs eff              0.         0.         0.         0.      
 cdsat             127.9660f  127.9660f  735.2745a  735.2745a 
 cssat             127.9660f  127.9660f  735.2745a  735.2745a 
 capbd             133.6681a  133.6681a  178.5462a  178.5462a 
 capbs             116.1033a  116.1033a  152.1990a  152.1990a 
 temp               25.0000    25.0000    25.0000    25.0000  
 aic                                                          
 nf                  1.0000     1.0000     1.0000     1.0000  
 min                 0.         0.         0.         0.      
 rbdb               15.0000    15.0000    15.0000    15.0000  
 rbsb               15.0000    15.0000    15.0000    15.0000  
 rbpb                5.0000     5.0000     5.0000     5.0000  
 rbps               15.0000    15.0000    15.0000    15.0000  
 rbpd               15.0000    15.0000    15.0000    15.0000  
 trnqsmod            0.         0.         0.         0.      
 acnqsmod            0.         0.         0.         0.      
 rbodymod            1.0000     1.0000     1.0000     1.0000  
 rgatemod            1.0000     1.0000     1.0000     1.0000  
 geomod              0.         0.         0.         0.      
 rgeomod             0.         0.         0.         0.      
 delvto              0.         0.         0.         0.      
 mulu0               1.0000     1.0000     1.0000     1.0000  
 delk1               0.         0.         0.         0.      
 delnfct             0.         0.         0.         0.      
 deltox              0.         0.         0.         0.      
 sa                  0.         0.         0.         0.      
 sb                  0.         0.         0.         0.      
 sd                  0.         0.         0.         0.      
 saeff               0.         0.         0.         0.      
 sbeff               0.         0.         0.         0.      
  
  
                                                                  
 element name       14:m1        14:m0        14:m2      14:m3    
 drain               1:net0136    1:net0180   14:bit_b   14:bit   
 gate                0:0          0:0         14:bit     14:bit_b 
 source             14:bit_b     14:bit        0:vcell    0:vcell 
 bulk                0:0          0:0          0:vdd!     0:vdd!  
 model               0:nmos       0:nmos       0:pmos     0:pmos  
 w eff               4.9920u      4.9920u      4.9920u    4.9920u 
 l eff              29.0000n     29.0000n     29.0000n   29.0000n 
 rd eff              0.           0.           0.         0.      
 rs eff              0.           0.           0.         0.      
 cdsat             503.6792a    503.6792a    503.6792a  503.6792a 
 cssat             503.6792a    503.6792a    503.6792a  503.6792a 
 capbd             133.6681a    133.6681a    133.6681a  133.6681a 
 capbs             116.1033a    116.1033a    116.1033a  116.1033a 
 temp               25.0000      25.0000      25.0000    25.0000  
 aic                                                              
 nf                  1.0000       1.0000       1.0000     1.0000  
 min                 0.           0.           0.         0.      
 rbdb               15.0000      15.0000      15.0000    15.0000  
 rbsb               15.0000      15.0000      15.0000    15.0000  
 rbpb                5.0000       5.0000       5.0000     5.0000  
 rbps               15.0000      15.0000      15.0000    15.0000  
 rbpd               15.0000      15.0000      15.0000    15.0000  
 trnqsmod            0.           0.           0.         0.      
 acnqsmod            0.           0.           0.         0.      
 rbodymod            1.0000       1.0000       1.0000     1.0000  
 rgatemod            1.0000       1.0000       1.0000     1.0000  
 geomod              0.           0.           0.         0.      
 rgeomod             0.           0.           0.         0.      
 delvto              0.           0.           0.         0.      
 mulu0               1.0000       1.0000       1.0000     1.0000  
 delk1               0.           0.           0.         0.      
 delnfct             0.           0.           0.         0.      
 deltox              0.           0.           0.         0.      
 sa                  0.           0.           0.         0.      
 sb                  0.           0.           0.         0.      
 sd                  0.           0.           0.         0.      
 saeff               0.           0.           0.         0.      
 sbeff               0.           0.           0.         0.      
  
  
                                                                  
 element name       15:m5      15:m4      15:m1        15:m0      
 drain              15:bit     15:bit_b    1:net0233    1:net0234 
 gate               15:bit_b   15:bit      0:0          0:0       
 source              0:0        0:0       15:bit_b     15:bit     
 bulk                0:0        0:0        0:0          0:0       
 model               0:nmos     0:nmos     0:nmos       0:nmos    
 w eff               7.6860u    7.6860u    4.9140u      4.9140u   
 l eff              29.0000n   29.0000n   29.0000n     29.0000n   
 rd eff              0.         0.         0.           0.        
 rs eff              0.         0.         0.           0.        
 cdsat             723.7858a  723.7858a  495.8092a    495.8092a   
 cssat             723.7858a  723.7858a  495.8092a    495.8092a   
 capbd             178.5462a  178.5462a  133.6681a    133.6681a   
 capbs             152.1990a  152.1990a  116.1033a    116.1033a   
 temp               25.0000    25.0000    25.0000      25.0000    
 aic                                                              
 nf                  1.0000     1.0000     1.0000       1.0000    
 min                 0.         0.         0.           0.        
 rbdb               15.0000    15.0000    15.0000      15.0000    
 rbsb               15.0000    15.0000    15.0000      15.0000    
 rbpb                5.0000     5.0000     5.0000       5.0000    
 rbps               15.0000    15.0000    15.0000      15.0000    
 rbpd               15.0000    15.0000    15.0000      15.0000    
 trnqsmod            0.         0.         0.           0.        
 acnqsmod            0.         0.         0.           0.        
 rbodymod            1.0000     1.0000     1.0000       1.0000    
 rgatemod            1.0000     1.0000     1.0000       1.0000    
 geomod              0.         0.         0.           0.        
 rgeomod             0.         0.         0.           0.        
 delvto              0.         0.         0.           0.        
 mulu0               1.0000     1.0000     1.0000       1.0000    
 delk1               0.         0.         0.           0.        
 delnfct             0.         0.         0.           0.        
 deltox              0.         0.         0.           0.        
 sa                  0.         0.         0.           0.        
 sb                  0.         0.         0.           0.        
 sd                  0.         0.         0.           0.        
 saeff               0.         0.         0.           0.        
 sbeff               0.         0.         0.           0.        
  
  
                                                              
 element name       15:m2      15:m3      16:m5      16:m4    
 drain              15:bit_b   15:bit     16:bit     16:bit_b 
 gate               15:bit     15:bit_b   16:bit_b   16:bit   
 source              0:vcell    0:vcell    0:0        0:0     
 bulk                0:vdd!     0:vdd!     0:0        0:0     
 model               0:pmos     0:pmos     0:nmos     0:nmos  
 w eff               4.9140u    4.9140u  122.0000n  122.0000n 
 l eff              29.0000n   29.0000n   29.0000n   29.0000n 
 rd eff              0.         0.         0.         0.      
 rs eff              0.         0.         0.         0.      
 cdsat             495.8092a  495.8092a   11.4887a   11.4887a 
 cssat             495.8092a  495.8092a   11.4887a   11.4887a 
 capbd             133.6681a  133.6681a  178.5462a  178.5462a 
 capbs             116.1033a  116.1033a  152.1990a  152.1990a 
 temp               25.0000    25.0000    25.0000    25.0000  
 aic                                                          
 nf                  1.0000     1.0000     1.0000     1.0000  
 min                 0.         0.         0.         0.      
 rbdb               15.0000    15.0000    15.0000    15.0000  
 rbsb               15.0000    15.0000    15.0000    15.0000  
 rbpb                5.0000     5.0000     5.0000     5.0000  
 rbps               15.0000    15.0000    15.0000    15.0000  
 rbpd               15.0000    15.0000    15.0000    15.0000  
 trnqsmod            0.         0.         0.         0.      
 acnqsmod            0.         0.         0.         0.      
 rbodymod            1.0000     1.0000     1.0000     1.0000  
 rgatemod            1.0000     1.0000     1.0000     1.0000  
 geomod              0.         0.         0.         0.      
 rgeomod             0.         0.         0.         0.      
 delvto              0.         0.         0.         0.      
 mulu0               1.0000     1.0000     1.0000     1.0000  
 delk1               0.         0.         0.         0.      
 delnfct             0.         0.         0.         0.      
 deltox              0.         0.         0.         0.      
 sa                  0.         0.         0.         0.      
 sb                  0.         0.         0.         0.      
 sd                  0.         0.         0.         0.      
 saeff               0.         0.         0.         0.      
 sbeff               0.         0.         0.         0.      
  
  
                                                              
 element name       16:m1      16:m0      16:m2      16:m3    
 drain               0:0        0:0       16:bit_b   16:bit   
 gate                0:0        0:0       16:bit     16:bit_b 
 source             16:bit_b   16:bit      0:vcell    0:vcell 
 bulk                0:0        0:0        0:vdd!     0:vdd!  
 model               0:nmos     0:nmos     0:pmos     0:pmos  
 w eff              78.0000n   78.0000n   78.0000n   78.0000n 
 l eff              29.0000n   29.0000n   29.0000n   29.0000n 
 rd eff              0.         0.         0.         0.      
 rs eff              0.         0.         0.         0.      
 cdsat               7.8700a    7.8700a    7.8700a    7.8700a 
 cssat               7.8700a    7.8700a    7.8700a    7.8700a 
 capbd             133.6681a  133.6681a  133.6681a  133.6681a 
 capbs             116.1033a  116.1033a  116.1033a  116.1033a 
 temp               25.0000    25.0000    25.0000    25.0000  
 aic                                                          
 nf                  1.0000     1.0000     1.0000     1.0000  
 min                 0.         0.         0.         0.      
 rbdb               15.0000    15.0000    15.0000    15.0000  
 rbsb               15.0000    15.0000    15.0000    15.0000  
 rbpb                5.0000     5.0000     5.0000     5.0000  
 rbps               15.0000    15.0000    15.0000    15.0000  
 rbpd               15.0000    15.0000    15.0000    15.0000  
 trnqsmod            0.         0.         0.         0.      
 acnqsmod            0.         0.         0.         0.      
 rbodymod            1.0000     1.0000     1.0000     1.0000  
 rgatemod            1.0000     1.0000     1.0000     1.0000  
 geomod              0.         0.         0.         0.      
 rgeomod             0.         0.         0.         0.      
 delvto              0.         0.         0.         0.      
 mulu0               1.0000     1.0000     1.0000     1.0000  
 delk1               0.         0.         0.         0.      
 delnfct             0.         0.         0.         0.      
 deltox              0.         0.         0.         0.      
 sa                  0.         0.         0.         0.      
 sb                  0.         0.         0.         0.      
 sd                  0.         0.         0.         0.      
 saeff               0.         0.         0.         0.      
 sbeff               0.         0.         0.         0.      
  
  
                                                              
 element name       17:m5      17:m4      17:m1      17:m0    
 drain              17:bit     17:bit_b    0:0        0:0     
 gate               17:bit_b   17:bit      0:0        0:0     
 source              0:0        0:0       17:bit_b   17:bit   
 bulk                0:0        0:0        0:0        0:0     
 model               0:nmos     0:nmos     0:nmos     0:nmos  
 w eff              30.9880u   30.9880u   19.8120u   19.8120u 
 l eff              29.0000n   29.0000n   29.0000n   29.0000n 
 rd eff              0.         0.         0.         0.      
 rs eff              0.         0.         0.         0.      
 cdsat               2.9181f    2.9181f    1.9990f    1.9990f 
 cssat               2.9181f    2.9181f    1.9990f    1.9990f 
 capbd             178.5462a  178.5462a  133.6681a  133.6681a 
 capbs             152.1990a  152.1990a  116.1033a  116.1033a 
 temp               25.0000    25.0000    25.0000    25.0000  
 aic                                                          
 nf                  1.0000     1.0000     1.0000     1.0000  
 min                 0.         0.         0.         0.      
 rbdb               15.0000    15.0000    15.0000    15.0000  
 rbsb               15.0000    15.0000    15.0000    15.0000  
 rbpb                5.0000     5.0000     5.0000     5.0000  
 rbps               15.0000    15.0000    15.0000    15.0000  
 rbpd               15.0000    15.0000    15.0000    15.0000  
 trnqsmod            0.         0.         0.         0.      
 acnqsmod            0.         0.         0.         0.      
 rbodymod            1.0000     1.0000     1.0000     1.0000  
 rgatemod            1.0000     1.0000     1.0000     1.0000  
 geomod              0.         0.         0.         0.      
 rgeomod             0.         0.         0.         0.      
 delvto              0.         0.         0.         0.      
 mulu0               1.0000     1.0000     1.0000     1.0000  
 delk1               0.         0.         0.         0.      
 delnfct             0.         0.         0.         0.      
 deltox              0.         0.         0.         0.      
 sa                  0.         0.         0.         0.      
 sb                  0.         0.         0.         0.      
 sd                  0.         0.         0.         0.      
 saeff               0.         0.         0.         0.      
 sbeff               0.         0.         0.         0.      
  
  
                                                              
 element name       17:m2      17:m3      18:m5      18:m4    
 drain              17:bit_b   17:bit     18:bit     18:bit_b 
 gate               17:bit     17:bit_b   18:bit_b   18:bit   
 source              0:vcell    0:vcell    0:0        0:0     
 bulk                0:vdd!     0:vdd!     0:0        0:0     
 model               0:pmos     0:pmos     0:nmos     0:nmos  
 w eff              19.8120u   19.8120u    1.9520m    1.9520m 
 l eff              29.0000n   29.0000n   29.0000n   29.0000n 
 rd eff              0.         0.         0.         0.      
 rs eff              0.         0.         0.         0.      
 cdsat               1.9990f    1.9990f  183.8186f  183.8186f 
 cssat               1.9990f    1.9990f  183.8186f  183.8186f 
 capbd             133.6681a  133.6681a  178.5462a  178.5462a 
 capbs             116.1033a  116.1033a  152.1990a  152.1990a 
 temp               25.0000    25.0000    25.0000    25.0000  
 aic                                                          
 nf                  1.0000     1.0000     1.0000     1.0000  
 min                 0.         0.         0.         0.      
 rbdb               15.0000    15.0000    15.0000    15.0000  
 rbsb               15.0000    15.0000    15.0000    15.0000  
 rbpb                5.0000     5.0000     5.0000     5.0000  
 rbps               15.0000    15.0000    15.0000    15.0000  
 rbpd               15.0000    15.0000    15.0000    15.0000  
 trnqsmod            0.         0.         0.         0.      
 acnqsmod            0.         0.         0.         0.      
 rbodymod            1.0000     1.0000     1.0000     1.0000  
 rgatemod            1.0000     1.0000     1.0000     1.0000  
 geomod              0.         0.         0.         0.      
 rgeomod             0.         0.         0.         0.      
 delvto              0.         0.         0.         0.      
 mulu0               1.0000     1.0000     1.0000     1.0000  
 delk1               0.         0.         0.         0.      
 delnfct             0.         0.         0.         0.      
 deltox              0.         0.         0.         0.      
 sa                  0.         0.         0.         0.      
 sb                  0.         0.         0.         0.      
 sd                  0.         0.         0.         0.      
 saeff               0.         0.         0.         0.      
 sbeff               0.         0.         0.         0.      
  
  
                                                                  
 element name       18:m1        18:m0        18:m2      18:m3    
 drain               1:net0233    1:net0234   18:bit_b   18:bit   
 gate                0:0          0:0         18:bit     18:bit_b 
 source             18:bit_b     18:bit        0:vcell    0:vcell 
 bulk                0:0          0:0          0:vdd!     0:vdd!  
 model               0:nmos       0:nmos       0:pmos     0:pmos  
 w eff               1.2480m      1.2480m      1.2480m    1.2480m 
 l eff              29.0000n     29.0000n     29.0000n   29.0000n 
 rd eff              0.           0.           0.         0.      
 rs eff              0.           0.           0.         0.      
 cdsat             125.9198f    125.9198f    125.9198f  125.9198f 
 cssat             125.9198f    125.9198f    125.9198f  125.9198f 
 capbd             133.6681a    133.6681a    133.6681a  133.6681a 
 capbs             116.1033a    116.1033a    116.1033a  116.1033a 
 temp               25.0000      25.0000      25.0000    25.0000  
 aic                                                              
 nf                  1.0000       1.0000       1.0000     1.0000  
 min                 0.           0.           0.         0.      
 rbdb               15.0000      15.0000      15.0000    15.0000  
 rbsb               15.0000      15.0000      15.0000    15.0000  
 rbpb                5.0000       5.0000       5.0000     5.0000  
 rbps               15.0000      15.0000      15.0000    15.0000  
 rbpd               15.0000      15.0000      15.0000    15.0000  
 trnqsmod            0.           0.           0.         0.      
 acnqsmod            0.           0.           0.         0.      
 rbodymod            1.0000       1.0000       1.0000     1.0000  
 rgatemod            1.0000       1.0000       1.0000     1.0000  
 geomod              0.           0.           0.         0.      
 rgeomod             0.           0.           0.         0.      
 delvto              0.           0.           0.         0.      
 mulu0               1.0000       1.0000       1.0000     1.0000  
 delk1               0.           0.           0.         0.      
 delnfct             0.           0.           0.         0.      
 deltox              0.           0.           0.         0.      
 sa                  0.           0.           0.         0.      
 sb                  0.           0.           0.         0.      
 sd                  0.           0.           0.         0.      
 saeff               0.           0.           0.         0.      
 sbeff               0.           0.           0.         0.      
  
  
                                                                  
 element name       19:m5      19:m4      19:m1        19:m0      
 drain              19:bit     19:bit_b    1:net0136    1:net0180 
 gate               19:bit_b   19:bit      0:0          0:0       
 source              0:0        0:0       19:bit_b     19:bit     
 bulk                0:0        0:0        0:0          0:0       
 model               0:nmos     0:nmos     0:nmos       0:nmos    
 w eff               1.9837m    1.9837m    1.2683m      1.2683m   
 l eff              29.0000n   29.0000n   29.0000n     29.0000n   
 rd eff              0.         0.         0.           0.        
 rs eff              0.         0.         0.           0.        
 cdsat             186.8057f  186.8057f  127.9660f    127.9660f   
 cssat             186.8057f  186.8057f  127.9660f    127.9660f   
 capbd             178.5462a  178.5462a  133.6681a    133.6681a   
 capbs             152.1990a  152.1990a  116.1033a    116.1033a   
 temp               25.0000    25.0000    25.0000      25.0000    
 aic                                                              
 nf                  1.0000     1.0000     1.0000       1.0000    
 min                 0.         0.         0.           0.        
 rbdb               15.0000    15.0000    15.0000      15.0000    
 rbsb               15.0000    15.0000    15.0000      15.0000    
 rbpb                5.0000     5.0000     5.0000       5.0000    
 rbps               15.0000    15.0000    15.0000      15.0000    
 rbpd               15.0000    15.0000    15.0000      15.0000    
 trnqsmod            0.         0.         0.           0.        
 acnqsmod            0.         0.         0.           0.        
 rbodymod            1.0000     1.0000     1.0000       1.0000    
 rgatemod            1.0000     1.0000     1.0000       1.0000    
 geomod              0.         0.         0.           0.        
 rgeomod             0.         0.         0.           0.        
 delvto              0.         0.         0.           0.        
 mulu0               1.0000     1.0000     1.0000       1.0000    
 delk1               0.         0.         0.           0.        
 delnfct             0.         0.         0.           0.        
 deltox              0.         0.         0.           0.        
 sa                  0.         0.         0.           0.        
 sb                  0.         0.         0.           0.        
 sd                  0.         0.         0.           0.        
 saeff               0.         0.         0.           0.        
 sbeff               0.         0.         0.           0.        
  
  
                                                              
 element name       19:m2      19:m3      20:m5      20:m4    
 drain              19:bit_b   19:bit     20:bit     20:bit_b 
 gate               19:bit     19:bit_b   20:bit_b   20:bit   
[...]
 element  35:m2       36:m1       36:m2       37:m1       37:m2      
 model     0:nmos      0:pmos      0:nmos      0:pmos      0:nmos    
 region        Linear      Cutoff      Linear      Linear      Cutoff
  id        241.7476n  -441.8036n     6.3513u    -1.1191u     1.4989u
  ibs       3.014e-23  -5.917e-23   2.006e-22  -6.490e-23   5.939e-23
  ibd      -682.0805a    62.9991p    -2.8882f     3.6261f   -63.0002p
  vgs         1.0000      0.          1.0000   -999.9892m    10.8221u
  vds        10.8221u  -999.9543m    45.7362u   -57.4877u   999.9425m
  vbs         0.          0.          0.          0.          0.     
  vth       370.5949m  -225.7009m   370.5926m  -310.7585m   302.3806m
  vdsat     332.6919m   -46.2009m   339.9380m  -504.3301m    39.8573m
  vod       629.4051m   225.7009m   629.4074m  -689.2307m  -302.3698m
  beta      106.6380m    46.5130m   708.1868m    35.2902m   996.0519m
  gam eff   441.0000m   394.0000m   441.0000m   394.0000m   441.0000m
  gm         97.4596n    11.2053u     2.4083u   944.7839n    37.7460u
  gds        22.3380m     1.0746u   138.8605m    19.4651m     2.8213u
  gmb        51.4115n     2.5168u     1.2672u   380.3341n    10.7094u
  cdtot      14.5360f    19.7908f    77.2625f    39.4093f    37.5775f
  cgtot       8.4386f    12.8673f    55.7767f    28.2965f    26.9850f
  cstot      10.2025f    22.8290f    49.1987f    26.1526f    43.1736f
  cbtot      16.6457f    34.5252f    72.4531f    38.5628f    64.8351f
  cgs         4.5866f     6.3865f    30.4612f    15.8974f    13.0591f
  cgd         3.8898f     4.0953f    25.8311f    12.5078f     8.3918f



 subckt    xi0.xwrite  xi0.xwrite  xi0.xwrite  xi0.xwrite  xi0.xwrite
 element  38:m1       38:m2       39:m1       39:m2       40:m1      
 model     0:pmos      0:nmos      0:pmos      0:nmos      0:pmos    
 region        Cutoff      Linear      Cutoff      Linear      Linear
  id       -293.3078n   245.5849n  -448.8163n     6.4521u    -1.1368u
  ibs      -6.008e-23   3.062e-23  -6.012e-23   2.037e-22  -6.592e-23
  ibd        64.0007p  -692.9071a    63.9991p    -2.9340f     3.6836f
  vgs         0.          1.0000      0.          1.0000   -999.9892m
  vds      -999.9892m    10.8221u  -999.9543m    45.7362u   -57.4877u
  vbs         0.          0.          0.          0.          0.     
  vth      -225.6979m   370.5949m  -225.7009m   370.5926m  -310.7585m
  vdsat     -46.2005m   332.6919m   -46.2009m   339.9380m  -504.3301m
  vod       225.6979m   629.4051m   225.7009m   629.4074m  -689.2307m
  beta       30.8809m   108.3306m    47.2513m   719.4279m    35.8504m
  gam eff   394.0000m   441.0000m   394.0000m   441.0000m   394.0000m
  gm          7.4390u    99.0065n    11.3831u     2.4465u   959.7805n
  gds       713.4190n    22.6926m     1.0917u   141.0646m    19.7741m
  gmb         1.6709u    52.2275n     2.5568u     1.2873u   386.3711n
  cdtot      14.0954f    14.7668f    20.1049f    78.4889f    40.0349f
  cgtot       8.5593f     8.5725f    13.0716f    56.6620f    28.7457f
  cstot      16.3145f    10.3645f    23.1914f    49.9796f    26.5677f
  cbtot      25.0521f    16.9099f    35.0732f    73.6031f    39.1749f
  cgs         4.2401f     4.6595f     6.4879f    30.9447f    16.1498f
  cgd         2.7189f     3.9516f     4.1603f    26.2411f    12.7063f



 subckt    xi0.xwrite  xi0.xwrite  xi0.xwrite  xi0.xwrite  xi0.xwrite
 element  40:m2       41:m1       41:m2       42:m1       42:m2      
 model     0:nmos      0:pmos      0:nmos      0:pmos      0:nmos    
 region        Cutoff      Cutoff      Linear      Cutoff      Linear
  id          1.5227u  -293.3078n   245.5849n  -448.8163n     6.4521u
  ibs       6.033e-23  -6.008e-23   3.062e-23  -6.012e-23   2.037e-22
  ibd       -64.0002p    64.0007p  -692.9071a    63.9991p    -2.9340f
  vgs        10.8221u     0.          1.0000      0.          1.0000 
  vds       999.9425m  -999.9892m    10.8221u  -999.9543m    45.7362u
  vbs         0.          0.          0.          0.          0.     
  vth       302.3806m  -225.6979m   370.5949m  -225.7009m   370.5926m
  vdsat      39.8573m   -46.2005m   332.6919m   -46.2009m   339.9380m
  vod      -302.3698m   225.6979m   629.4051m   225.7009m   629.4074m
  beta        1.0119     30.8809m   108.3306m    47.2513m   719.4279m
  gam eff   441.0000m   394.0000m   441.0000m   394.0000m   441.0000m
  gm         38.3452u     7.4390u    99.0065n    11.3831u     2.4465u
  gds         2.8661u   713.4190n    22.6926m     1.0917u   141.0646m
  gmb        10.8794u     1.6709u    52.2275n     2.5568u     1.2873u
  cdtot      38.1740f    14.0954f    14.7668f    20.1049f    78.4889f
  cgtot      27.4133f     8.5593f     8.5725f    13.0716f    56.6620f
  cstot      43.8589f    16.3145f    10.3645f    23.1914f    49.9796f
  cbtot      65.8642f    25.0521f    16.9099f    35.0732f    73.6031f
  cgs        13.2664f     4.2401f     4.6595f     6.4879f    30.9447f
  cgd         8.5250f     2.7189f     3.9516f     4.1603f    26.2411f



 subckt    xi0.xwrite  xi0.xwrite  xi0.xwrite  xi0.xwrite  xi0.xwrite
 element  43:m1       43:m2       44:m1       44:m2       45:m1      
 model     0:pmos      0:nmos      0:pmos      0:nmos      0:pmos    
 region        Linear      Cutoff      Cutoff      Linear      Cutoff
  id         -1.1368u     1.5227u  -288.7249n   241.7476n  -441.8036n
  ibs      -6.592e-23   6.033e-23  -5.914e-23   3.014e-23  -5.917e-23
  ibd         3.6836f   -64.0002p    63.0006p  -682.0805a    62.9991p
  vgs      -999.9892m    10.8221u     0.          1.0000      0.     
  vds       -57.4877u   999.9425m  -999.9892m    10.8221u  -999.9543m
  vbs         0.          0.          0.          0.          0.     
  vth      -310.7585m   302.3806m  -225.6979m   370.5949m  -225.7009m
  vdsat    -504.3301m    39.8573m   -46.2005m   332.6919m   -46.2009m
  vod      -689.2307m  -302.3698m   225.6979m   629.4051m   225.7009m
  beta       35.8504m     1.0119     30.3984m   106.6380m    46.5130m
  gam eff   394.0000m   441.0000m   394.0000m   441.0000m   394.0000m
  gm        959.7805n    38.3452u     7.3228u    97.4596n    11.2053u
  gds        19.7741m     2.8661u   702.2719n    22.3380m     1.0746u
  gmb       386.3711n    10.8794u     1.6448u    51.4115n     2.5168u
  cdtot      40.0349f    38.1740f    13.8751f    14.5360f    19.7908f
  cgtot      28.7457f    27.4133f     8.4255f     8.4386f    12.8673f
  cstot      26.5677f    43.8589f    16.0596f    10.2025f    22.8290f
  cbtot      39.1749f    65.8642f    24.6607f    16.6457f    34.5252f
  cgs        16.1498f    13.2664f     4.1738f     4.5866f     6.3865f
  cgd        12.7063f     8.5250f     2.6764f     3.8898f     4.0953f



 subckt    xi0.xwrite  xi0.xwrite  xi0.xwrite  xi0.xwrite  xi0.xwrite
 element  45:m2       46:m1       46:m2       47:m1       47:m2      
 model     0:nmos      0:pmos      0:nmos      0:pmos      0:nmos    
 region        Linear      Linear      Cutoff      Linear      Cutoff
  id          6.3513u    -1.1191u     1.4989u   -10.3246n     3.5795n
  ibs       2.006e-22  -6.490e-23   5.939e-23  -6.729e-25   9.383e-25
  ibd        -2.8882f     3.6261f   -63.0002p    50.9825a  -999.9600f
  vgs         1.0000   -999.9892m    10.8221u    -1.0000      0.     
  vds        45.7362u   -57.4877u   999.9425m   -50.9412u   999.9491m
  vbs         0.          0.          0.          0.          0.     
  vth       370.5926m  -310.7585m   302.3806m  -310.7591m   302.3801m
  vdsat     339.9380m  -504.3301m    39.8573m  -504.0769m    39.7932m
  vod       629.4074m  -689.2307m  -302.3698m  -689.2409m  -302.3801m
  beta      708.1868m    35.2902m   996.0519m   366.0884u     2.3807m
  gam eff   441.0000m   394.0000m   441.0000m   394.0000m   441.0000m
  gm          2.4083u   944.7839n    37.7460u     8.7475n    90.1419n
  gds       138.8605m    19.4651m     2.8213u   202.6674u     6.7375n
  gmb         1.2672u   380.3341n    10.7094u     3.5217n    25.5750n
  cdtot      77.2625f    39.4093f    37.5775f   427.6081a   126.4383a
  cgtot      55.7767f    28.2965f    26.9850f   293.7973a    65.1283a
  cstot      49.1987f    26.1526f    43.1736f   289.3901a   147.5476a
  cbtot      72.4531f    38.5628f    64.8351f   437.1730a   236.5753a
  cgs        30.4612f    15.8974f    13.0591f   164.9143a    31.2129a
  cgd        25.8311f    12.5078f     8.3918f   129.7533a    20.0576a



 subckt    xi0.xwrite  xi0.xwrite  xi0.xwrite  xi0.xwrite  xclk_gen.x
 element  48:m1       48:m2       49:m1       49:m2       53:m_0     
 model     0:pmos      0:nmos      0:pmos      0:nmos      0:nmos    
 region        Linear      Cutoff      Cutoff      Linear      Cutoff
  id       -108.1699n    23.7725n    -7.0225n    10.4857n     7.6210n
  ibs      -1.031e-24   9.424e-25  -9.395e-25   3.180e-24   9.392e-25
  ibd       350.5900a  -999.7111f     1.0000p    -4.7682a  -999.9954f
  vgs        -1.0000      0.        -50.9412u   999.9491m     0.     
  vds      -350.1720u   999.6498m  -999.9952m     4.7569u   999.9744m
  vbs         0.          0.          0.          0.          0.     
  vth      -310.7336m   302.4006m  -225.6974m   370.5953m   302.3784m
  vdsat    -504.3477m    39.8574m   -46.2013m   339.9150m    39.8318m
  vod      -689.2664m  -302.4006m   225.6464m   629.3537m  -302.3784m
  beta      560.1688u    15.8100m   738.3065u    11.2413m     5.0666m
  gam eff   394.0000m   441.0000m   394.0000m   441.0000m   441.0000m
  gm         91.3556n   598.6567n   178.1031n     3.9759n   191.9183n
  gds       308.8043u    44.7468n    17.0805n     2.2043m    14.3449n
  gmb        36.7658n   169.8559n    40.0027n     2.0921n    54.4515n
  cdtot     625.3877a   596.4941a   314.1381a     1.2264f   220.4434a
  cgtot     449.1450a   428.3339a   204.2473a   885.3447a   137.7687a
  cstot     415.2088a   685.2928a   362.3710a   780.9015a   255.0966a
  cbtot     612.0660a     1.0292f   548.0164a     1.1501f   395.0850a
  cgs       252.4006a   207.2854a   101.3780a   483.4897a    66.4274a
  cgd       198.4681a   133.2060a    65.0041a   410.0386a    42.6865a



 subckt    xclk_gen.x  xclk_gen.x  xclk_gen.x  xclk_gen.x  xclk_gen.x
 element  53:m_1      54:m_0      54:m_1      55:m_0      55:m_1     
 model     0:pmos      0:nmos      0:pmos      0:nmos      0:pmos    
 region        Linear      Linear      Cutoff      Cutoff      Linear
  id        -16.0612n    54.8624n   -57.2547n   121.9947n  -257.0380n
  ibs      -2.103e-24   4.072e-24  -3.765e-24   1.503e-23  -3.364e-23
  ibd        25.6407a   -75.7425a     4.0002p   -15.9999p   410.3531a
  vgs        -1.0000    999.9744m   -25.5802u    18.9202u  -999.9811m
  vds       -25.5802u    18.9202u  -999.9811m   999.9744m   -25.5865u
  vbs         0.          0.          0.          0.          0.     
  vth      -310.7612m   370.5944m  -225.6986m   302.3784m  -310.7612m
  vdsat    -504.5937m   337.0862m   -46.2016m    39.8318m  -504.5826m
  vod      -689.2388m   629.3800m   225.6730m  -302.3595m  -689.2199m
  beta        1.1424m    14.4096m     6.0227m    81.0664m    18.2781m
  gam eff   394.0000m   441.0000m   394.0000m   441.0000m   394.0000m
  gm         13.5110n    21.3085n     1.4521u     3.0721u   216.2348n
  gds       627.8611u     2.8996m   139.2593n   229.6257n    10.0456m
  gmb         5.4389n    11.2233n   326.1537n   871.6237n    87.0444n
  cdtot       1.2194f     1.7195f     2.3833f     3.5271f    19.5104f
  cgtot     915.2162a     1.1369f     1.6630f     2.2043f    14.6434f
  cstot     792.2893a     1.1430f     2.7389f     4.0816f    12.6766f
  cbtot       1.1369f     1.7655f     4.0710f     6.3214f    18.1907f
  cgs       514.6013a   619.7720a   826.9676a     1.0629f     8.2336f
  cgd       404.9048a   525.6006a   530.2694a   682.9857a     6.4785f



 subckt    xclk_gen.x  xclk_gen.x  xa0_gen.xg  xa0_gen.xg  xa0_gen.xg
 element  56:m_0      56:m_1      57:m_0      57:m_1      58:m_0     
 model     0:nmos      0:pmos      0:nmos      0:pmos      0:nmos    
 region        Linear      Cutoff      Cutoff      Linear      Linear
  id        986.5605n  -916.0696n     7.6210n   -16.0612n    54.8624n
  ibs       6.516e-23  -6.024e-23   9.392e-25  -2.103e-24   4.072e-24
  ibd        -1.3620f    64.0026p  -999.9954f    25.6407a   -75.7425a
  vgs       999.9744m   -25.5865u     0.         -1.0000    999.9744m
  vds        21.2646u  -999.9787m   999.9744m   -25.5802u    18.9202u
  vbs         0.          0.          0.          0.          0.     
  vth       370.5942m  -225.6988m   302.3784m  -310.7612m   370.5944m
  vdsat     337.0863m   -46.2016m    39.8318m  -504.5937m   337.0862m
  vod       629.3802m   225.6732m  -302.3784m  -689.2388m   629.3800m
  beta      230.5529m    96.3633m     5.0666m     1.1424m    14.4096m
  gam eff   441.0000m   394.0000m   441.0000m   394.0000m   441.0000m
  gm        383.1837n    23.2334u   191.9183n    13.5110n    21.3085n
  gds        46.3934m     2.2281u    14.3449n   627.8611u     2.8996m
  gmb       201.8231n     5.2184u    54.4515n     5.4389n    11.2233n
  cdtot      27.5114f    38.1333f   220.4434a     1.2194f     1.7195f
  cgtot      18.1904f    26.6086f   137.7687a   915.2162a     1.1369f
  cstot      18.2873f    43.8225f   255.0966a   792.2893a     1.1430f
  cbtot      28.2486f    65.1361f   395.0850a     1.1369f     1.7655f
  cgs         9.9164f    13.2315f    66.4274a   514.6013a   619.7720a
  cgd         8.4096f     8.4843f    42.6865a   404.9048a   525.6006a



 subckt    xa0_gen.xg  xa0_gen.xg  xa0_gen.xg  xa0_gen.xg  xa0_gen.xg
 element  58:m_1      59:m_0      59:m_1      60:m_0      60:m_1     
 model     0:pmos      0:nmos      0:pmos      0:nmos      0:pmos    
 region        Cutoff      Cutoff      Linear      Linear      Cutoff
  id        -57.2547n   121.9947n  -257.0380n   986.5605n  -916.0696n
  ibs      -3.765e-24   1.503e-23  -3.364e-23   6.516e-23  -6.024e-23
  ibd         4.0002p   -15.9999p   410.3531a    -1.3620f    64.0026p
  vgs       -25.5802u    18.9202u  -999.9811m   999.9744m   -25.5865u
  vds      -999.9811m   999.9744m   -25.5865u    21.2646u  -999.9787m
  vbs         0.          0.          0.          0.          0.     
  vth      -225.6986m   302.3784m  -310.7612m   370.5942m  -225.6988m
  vdsat     -46.2016m    39.8318m  -504.5826m   337.0863m   -46.2016m
  vod       225.6730m  -302.3595m  -689.2199m   629.3802m   225.6732m
  beta        6.0227m    81.0664m    18.2781m   230.5529m    96.3633m
  gam eff   394.0000m   441.0000m   394.0000m   441.0000m   394.0000m
  gm          1.4521u     3.0721u   216.2348n   383.1837n    23.2334u
  gds       139.2593n   229.6257n    10.0456m    46.3934m     2.2281u
  gmb       326.1537n   871.6237n    87.0444n   201.8231n     5.2184u
  cdtot       2.3833f     3.5271f    19.5104f    27.5114f    38.1333f
  cgtot       1.6630f     2.2043f    14.6434f    18.1904f    26.6086f
  cstot       2.7389f     4.0816f    12.6766f    18.2873f    43.8225f
  cbtot       4.0710f     6.3214f    18.1907f    28.2486f    65.1361f
  cgs       826.9676a     1.0629f     8.2336f     9.9164f    13.2315f
  cgd       530.2694a   682.9857a     6.4785f     8.4096f     8.4843f



 subckt    xa255_gen.  xa255_gen.  xa255_gen.  xa255_gen.  xa255_gen.
 element  61:m_0      61:m_1      62:m_0      62:m_1      63:m_0     
 model     0:nmos      0:pmos      0:nmos      0:pmos      0:nmos    
 region        Cutoff      Linear      Linear      Cutoff      Cutoff
  id          7.6210n   -16.0612n    54.8624n   -57.2547n   121.9947n
  ibs       9.392e-25  -2.103e-24   4.072e-24  -3.765e-24   1.503e-23
  ibd      -999.9954f    25.6407a   -75.7425a     4.0002p   -15.9999p
  vgs         0.         -1.0000    999.9744m   -25.5802u    18.9202u
  vds       999.9744m   -25.5802u    18.9202u  -999.9811m   999.9744m
  vbs         0.          0.          0.          0.          0.     
  vth       302.3784m  -310.7612m   370.5944m  -225.6986m   302.3784m
  vdsat      39.8318m  -504.5937m   337.0862m   -46.2016m    39.8318m
  vod      -302.3784m  -689.2388m   629.3800m   225.6730m  -302.3595m
  beta        5.0666m     1.1424m    14.4096m     6.0227m    81.0664m
  gam eff   441.0000m   394.0000m   441.0000m   394.0000m   441.0000m
  gm        191.9183n    13.5110n    21.3085n     1.4521u     3.0721u
  gds        14.3449n   627.8611u     2.8996m   139.2593n   229.6257n
  gmb        54.4515n     5.4389n    11.2233n   326.1537n   871.6237n
  cdtot     220.4434a     1.2194f     1.7195f     2.3833f     3.5271f
  cgtot     137.7687a   915.2162a     1.1369f     1.6630f     2.2043f
  cstot     255.0966a   792.2893a     1.1430f     2.7389f     4.0816f
  cbtot     395.0850a     1.1369f     1.7655f     4.0710f     6.3214f
  cgs        66.4274a   514.6013a   619.7720a   826.9676a     1.0629f
  cgd        42.6865a   404.9048a   525.6006a   530.2694a   682.9857a



 subckt    xa255_gen.  xa255_gen.  xa255_gen.
 element  63:m_1      64:m_0      64:m_1     
 model     0:pmos      0:nmos      0:pmos    
 region        Linear      Linear      Cutoff
  id       -257.0380n   986.5605n  -916.0696n
  ibs      -3.364e-23   6.516e-23  -6.024e-23
  ibd       410.3531a    -1.3620f    64.0026p
  vgs      -999.9811m   999.9744m   -25.5865u
  vds       -25.5865u    21.2646u  -999.9787m
  vbs         0.          0.          0.     
  vth      -310.7612m   370.5942m  -225.6988m
  vdsat    -504.5826m   337.0863m   -46.2016m
  vod      -689.2199m   629.3802m   225.6732m
  beta       18.2781m   230.5529m    96.3633m
  gam eff   394.0000m   441.0000m   394.0000m
  gm        216.2348n   383.1837n    23.2334u
  gds        10.0456m    46.3934m     2.2281u
  gmb        87.0444n   201.8231n     5.2184u
  cdtot      19.5104f    27.5114f    38.1333f
  cgtot      14.6434f    18.1904f    26.6086f
  cstot      12.6766f    18.2873f    43.8225f
  cbtot      18.1907f    28.2486f    65.1361f
  cgs         8.2336f     9.9164f    13.2315f
  cgd         6.4785f     8.4096f     8.4843f



 ******  
 part 2

  ******  transient analysis tnom=  25.000 temp=  27.000 *****
 write_core_power=  -1.0000u  from=   2.0000n     to=   3.0000n
 vcell_power=-407.8642u  from=   2.0000n     to=   3.0000n
 mem_core_power=-408.8642u

          ***** job concluded
1****** HSPICE -- F-2011.09-SP2 32-BIT (Feb 27 2012) linux ******               
 ******  
 part 2

  ******  job statistics summary tnom=  25.000 temp=  27.000 *****
  
  
 ******  Machine Information  ******
 CPU:
 model name	: Intel(R) Core(TM)2 Duo CPU     E8500  @ 3.16GHz
 cpu MHz	: 3158.603
  
 OS:
 Linux version 3.2.0-30-generic (buildd@batsu) (gcc version 4.6.3 (Ubuntu/Linaro
  4.6.3-1ubuntu5) ) #48-Ubuntu SMP Fri Aug 24 16:52:48 UTC 2012


  ******  HSPICE Threads Information  ******

  Command Line Threads Count :     1
  Available CPU Count        :     2
  Actual Threads Count       :     1


  ******  Circuit Statistics  ******
  # nodes       =     894 # elements   =     259
  # resistors   =       4 # capacitors =      24 # inductors   =       0
  # mutual_inds =       0 # vccs       =       0 # vcvs        =       3
  # cccs        =       6 # ccvs       =       0 # volt_srcs   =      24
  # curr_srcs   =       0 # diodes     =       0 # bjts        =       0
  # jfets       =       0 # mosfets    =     198 # U elements  =       0
  # T elements  =       0 # W elements =       0 # B elements  =       0
  # S elements  =       0 # P elements =       0 # va device   =       0
  # vector_srcs =       0


  ******  Runtime Statistics (seconds)  ******

  analysis           time    # points   tot. iter  conv.iter
  op point           0.02           1           7
  transient          3.60       60001       12152        3313 rev=       503
  readin             0.00
  errchk             0.06
  setup              0.00
  output             0.00


           peak memory used         90.71 megabytes
           total cpu time            3.70 seconds
           total elapsed time        3.99 seconds
           job started at     13:11:48 03/14/2013
           job ended   at     13:11:52 03/14/2013


 lic: Release hspice token(s) 
