Using: /usr/class/ee/synopsys/hspice/F-2011.09-SP2/hspice/linux/hspice part2_decoder_Blocked_Slowed_Switched_WR_Voltages.hsp
 ****** HSPICE -- F-2011.09-SP2 32-BIT (Feb 27 2012) linux ******               
  Copyright (C) 2011 Synopsys, Inc. All Rights Reserved.                        
  Unpublished-rights reserved under US copyright laws.
  This program is protected by law and is subject to the
  terms and conditions of the license agreement from Synopsys.
  Use of this program is your acceptance to be bound by the
  license agreement. HSPICE is the trademark of Synopsys, Inc.
  Input File: part2_decoder_Blocked_Slowed_Switched_WR_Voltages.hsp             
  Command line options: part2_decoder_Blocked_Slowed_Switched_WR_Voltages.hsp
 lic:  
 lic: FLEXlm: v10.8 
 lic: USER:   veharvey             HOSTNAME: myth11 
 lic: HOSTID: 001ec92fa1ac         PID:      32363 
 lic: Using FLEXlm license file: 
 lic: 27000@cadlic0.stanford.edu 
 lic: Checkout 1 hspice 
 lic: License/Maintenance for hspice will expire on 16-nov-2013/2013.03 
 lic: 2(in_use)/100(total) FLOATING license(s) on SERVER cadlic0.stanford.edu 
 lic:   
 Init: read install configuration file: /usr/class/ee/synopsys/hspice/F-2011.09-SP2/hspice/meta.cfg

 **warning**  runlvl smaller than 5, reset to 5  when accurate turned on
 scientific notation:
 a=10**-18  f=10**-15  p=10**-12  n=10**-9  u=10**-6
 m=10**-3   k=10**3    x=10**6    g=10**9 

 **warning**  runlvl smaller than 5, reset to 5  when accurate turned on
1****** HSPICE -- F-2011.09-SP2 32-BIT (Feb 27 2012) linux ******               
 ******  
 part 2

  ******  circuit name directory
 circuit number to circuit name directory
   number circuitname                     definition         multiplier
        0 main circuit
        1 xsense63_in.                    blocked_sense_inputs
                                                                 1.00 
        2 xsense0_in.                     blocked_sense_inputs
                                                                 1.00 
        3 xblock_decoder.                 block_decoder      1.00 
        4 xarray.                         array_blocked_wordline_4
                                                                 1.00 
        5 xdecoder.                       decoder            1.00 
        6 xsense63.                       sense              1.00 
        7 xsense0.                        sense              1.00 
        8 xvwl_mux.                       vwl_mux_array      1.00 
        9 xclk_gen.                       clk_gen            1.00 
       10 xa0_gen.                        a0_gen             1.00 
       11 xa255_gen.                      a255_gen           1.00 
       12 xsense63_in.xu20.               inv_pcell_56       1.00 
       13 xsense63_in.xu27.               inv_pcell_3        1.00 
       14 xsense63_in.xu22.               inv_pcell_3        1.00 
       15 xsense63_in.xu11.               inv_pcell_3        1.00 
       16 xsense63_in.xu0.                inv_pcell_3        1.00 
       17 xsense63_in.xu3.                nand_pcell_0       1.00 
       18 xsense63_in.xu2.                nand_pcell_0       1.00 
       19 xsense63_in.xu17.               inv_pcell_012      1.00 
       20 xsense63_in.xu18.               inv_pcell_012      1.00 
       21 xsense63_in.xu14.               inv_pcell_012      1.00 
       22 xsense63_in.xu12.               inv_pcell_012      1.00 
       23 xsense63_in.xu13.               inv_pcell_012      1.00 
       24 xsense63_in.xu28.               inv_pcell_910      1.00 
       25 xsense63_in.xu21.               inv_pcell_78       1.00 
       26 xsense63_in.xu26.               inv_pcell_1112     1.00 
       27 xsense63_in.xu25.               inv_pcell_13       1.00 
       28 xsense63_in.xu29.               inv_pcell_14       1.00 
       29 xsense0_in.xu20.                inv_pcell_56       1.00 
       30 xsense0_in.xu27.                inv_pcell_3        1.00 
       31 xsense0_in.xu22.                inv_pcell_3        1.00 
       32 xsense0_in.xu11.                inv_pcell_3        1.00 
       33 xsense0_in.xu0.                 inv_pcell_3        1.00 
       34 xsense0_in.xu3.                 nand_pcell_0       1.00 
       35 xsense0_in.xu2.                 nand_pcell_0       1.00 
       36 xsense0_in.xu17.                inv_pcell_012      1.00 
       37 xsense0_in.xu18.                inv_pcell_012      1.00 
       38 xsense0_in.xu14.                inv_pcell_012      1.00 
       39 xsense0_in.xu12.                inv_pcell_012      1.00 
       40 xsense0_in.xu13.                inv_pcell_012      1.00 
       41 xsense0_in.xu28.                inv_pcell_910      1.00 
       42 xsense0_in.xu21.                inv_pcell_78       1.00 
       43 xsense0_in.xu26.                inv_pcell_1112     1.00 
       44 xsense0_in.xu25.                inv_pcell_13       1.00 
       45 xsense0_in.xu29.                inv_pcell_14       1.00 
       46 xblock_decoder.xu13.            nand_pcell_3       1.00 
       47 xblock_decoder.xu12.            nand_pcell_3       1.00 
       48 xblock_decoder.xu11.            nand_pcell_3       1.00 
       49 xblock_decoder.xu10.            nand_pcell_3       1.00 
       50 xblock_decoder.xu8.             nand_pcell_3       1.00 
       51 xblock_decoder.xu3.             nand_pcell_3       1.00 
       52 xblock_decoder.xu4.             nand_pcell_3       1.00 
       53 xblock_decoder.xu7.             nand_pcell_3       1.00 
       54 xarray.xmctr.                   mc                 1.00 
       55 xarray.xmcmr.                   mc               254.00 
       56 xarray.xmcbr.                   mc                 1.00 
       57 xarray.xmctb3dum.               mc                63.00 
       58 xarray.xmcmb3dum.               mc                16.00k
       59 xarray.xmcbb3dum.               mc                63.00 
       60 xarray.xmcbb2dum.               mc                64.00 
       61 xarray.xmctb2dum.               mc                64.00 
       62 xarray.xmcmb2dum.               mc                16.26k
       63 xarray.xmctb1dum.               mc                64.00 
       64 xarray.xmcbb0dum.               mc                63.00 
       65 xarray.xmcbl.                   mc                 1.00 
       66 xarray.xmcml.                   mc               254.00 
       67 xarray.xmcmb0dum.               mc                16.00k
       68 xarray.xmcmb1dum.               mc                16.26k
       69 xarray.xmcbb1dum.               mc                64.00 
       70 xarray.xmctb0dum.               mc                63.00 
       71 xarray.xmctl.                   mc                 1.00 
       72 xarray.xwriter.                 write              1.00 
       73 xarray.xwriteb3dum.             write             63.00 
       74 xarray.xwriteb1dum.             write             64.00 
       75 xarray.xwriteb2dum.             write             64.00 
       76 xarray.xwriteb0dum.             write             63.00 
       77 xarray.xwritel.                 write              1.00 
       78 xdecoder.xpredecoder416.        predecode_416      1.00 
       79 xdecoder.xdecoder_stage.        decode_stage       1.00 
       80 xdecoder.xpredecoder24.         predecode_24       1.00 
       81 xsense63.xu1.                   inv_pcell_11       1.00 
       82 xsense63.xu0.                   inv_pcell_11       1.00 
       83 xsense63.xu3.                   inv_pcell_12       1.00 
       84 xsense63.xu2.                   inv_pcell_12       1.00 
       85 xsense0.xu1.                    inv_pcell_11       1.00 
       86 xsense0.xu0.                    inv_pcell_11       1.00 
       87 xsense0.xu3.                    inv_pcell_12       1.00 
       88 xsense0.xu2.                    inv_pcell_12       1.00 
       89 xvwl_mux.xi7.                   read_write_vwl_mux
                                                                 1.00 
       90 xvwl_mux.xi6.                   read_write_vwl_mux
                                                                 1.00 
       91 xvwl_mux.xi5.                   read_write_vwl_mux
                                                                 1.00 
       92 xvwl_mux.xi4.                   read_write_vwl_mux
                                                                 1.00 
       93 xvwl_mux.xi3.                   read_write_vwl_mux
                                                                 1.00 
       94 xvwl_mux.xi2.                   read_write_vwl_mux
                                                                 1.00 
       95 xvwl_mux.xi1.                   read_write_vwl_mux
                                                                 1.00 
       96 xvwl_mux.xi0.                   read_write_vwl_mux
                                                                 1.00 
       97 xvwl_mux.xu0.                   inv_pcell_012      1.00 
       98 xclk_gen.xgen.                  signal_gen         1.00 
       99 xa0_gen.xgen.                   signal_gen         1.00 
      100 xa255_gen.xgen.                 signal_gen         1.00 
      101 xarray.xwriter.xu0.             inv_pcell_01       1.00 
      102 xarray.xwriter.xu2.             inv_pcell_23       1.00 
      103 xarray.xwriter.xu1.             inv_pcell_23       1.00 
      104 xarray.xwriteb3dum.xu0.         inv_pcell_01      63.00 
      105 xarray.xwriteb3dum.xu2.         inv_pcell_23      63.00 
      106 xarray.xwriteb3dum.xu1.         inv_pcell_23      63.00 
      107 xarray.xwriteb1dum.xu0.         inv_pcell_01      64.00 
      108 xarray.xwriteb1dum.xu2.         inv_pcell_23      64.00 
      109 xarray.xwriteb1dum.xu1.         inv_pcell_23      64.00 
      110 xarray.xwriteb2dum.xu0.         inv_pcell_01      64.00 
      111 xarray.xwriteb2dum.xu2.         inv_pcell_23      64.00 
      112 xarray.xwriteb2dum.xu1.         inv_pcell_23      64.00 
      113 xarray.xwriteb0dum.xu0.         inv_pcell_01      63.00 
      114 xarray.xwriteb0dum.xu2.         inv_pcell_23      63.00 
      115 xarray.xwriteb0dum.xu1.         inv_pcell_23      63.00 
      116 xarray.xwritel.xu0.             inv_pcell_01       1.00 
      117 xarray.xwritel.xu2.             inv_pcell_23       1.00 
      118 xarray.xwritel.xu1.             inv_pcell_23       1.00 
      119 xdecoder.xpredecoder416.xi16.   nand_pcell_4       1.00 
      120 xdecoder.xpredecoder416.xi15.   nand_pcell_4       1.00 
      121 xdecoder.xpredecoder416.xi17.   nand_pcell_4       1.00 
      122 xdecoder.xpredecoder416.xi18.   nand_pcell_4       1.00 
      123 xdecoder.xpredecoder416.xu15.   inv_pcell_5        1.00 
      124 xdecoder.xpredecoder416.xu14.   inv_pcell_5        1.00 
      125 xdecoder.xpredecoder416.xu13.   inv_pcell_5        1.00 
      126 xdecoder.xpredecoder416.xu12.   inv_pcell_5        1.00 
      127 xdecoder.xpredecoder416.xu11.   inv_pcell_6        1.00 
      128 xdecoder.xpredecoder416.xu10.   inv_pcell_6        1.00 
      129 xdecoder.xpredecoder416.xu9.    inv_pcell_6        1.00 
      130 xdecoder.xpredecoder416.xu8.    inv_pcell_6        1.00 
      131 xdecoder.xpredecoder416.xu0.    inv_pcell_7        1.00 
      132 xdecoder.xpredecoder416.xu1.    inv_pcell_7        1.00 
      133 xdecoder.xpredecoder416.xu2.    inv_pcell_7        1.00 
      134 xdecoder.xpredecoder416.xu3.    inv_pcell_7        1.00 
      135 xdecoder.xdecoder_stage.xu3.    nand_pcell_8       1.00 
      136 xdecoder.xdecoder_stage.xu2.    nand_pcell_8       1.00 
      137 xdecoder.xdecoder_stage.xu1.    nand_pcell_8       1.00 
      138 xdecoder.xdecoder_stage.xu0.    nand_pcell_8       1.00 
      139 xdecoder.xdecoder_stage.xu8.    inv_pcell_9        1.00 
      140 xdecoder.xdecoder_stage.xu7.    inv_pcell_9        1.00 
      141 xdecoder.xdecoder_stage.xu6.    inv_pcell_9        1.00 
      142 xdecoder.xdecoder_stage.xu5.    inv_pcell_9        1.00 
      143 xdecoder.xpredecoder24.xu3.     inv_pcell_10       1.00 
      144 xdecoder.xpredecoder24.xu2.     inv_pcell_10       1.00 
      145 xdecoder.xpredecoder24.xu1.     inv_pcell_10       1.00 
      146 xdecoder.xpredecoder24.xu0.     inv_pcell_10       1.00 
      147 xdecoder.xpredecoder24.xi36.    nand3              1.00 
      148 xdecoder.xpredecoder24.xi37.    nand3              1.00 
      149 xdecoder.xpredecoder24.xi38.    nand3              1.00 
      150 xdecoder.xpredecoder24.xi39.    nand3              1.00 
      151 xclk_gen.xgen.x_0.              inv_chain_stimulus
                                                                 1.00 
      152 xa0_gen.xgen.x_0.               inv_chain_stimulus
                                                                 1.00 
      153 xa255_gen.xgen.x_0.             inv_chain_stimulus
                                                                 1.00 
      154 xclk_gen.xgen.x_0.x_0.          inv_stimulus       1.00 
      155 xclk_gen.xgen.x_0.x_1.          inv_stimulus       4.00 
      156 xclk_gen.xgen.x_0.x_2.          inv_stimulus      16.00 
      157 xclk_gen.xgen.x_0.x_3.          inv_stimulus      64.00 
      158 xa0_gen.xgen.x_0.x_0.           inv_stimulus       1.00 
      159 xa0_gen.xgen.x_0.x_1.           inv_stimulus       4.00 
      160 xa0_gen.xgen.x_0.x_2.           inv_stimulus      16.00 
      161 xa0_gen.xgen.x_0.x_3.           inv_stimulus      64.00 
      162 xa255_gen.xgen.x_0.x_0.         inv_stimulus       1.00 
      163 xa255_gen.xgen.x_0.x_1.         inv_stimulus       4.00 
      164 xa255_gen.xgen.x_0.x_2.         inv_stimulus      16.00 
      165 xa255_gen.xgen.x_0.x_3.         inv_stimulus      64.00 


 circuit parameter definitions
  parameter          =  value 

     0:supply                                                  = 700.0000m      
     0:tcyc                                                    =   1.0000n      
     0:trf                                                     =  50.0000p      
     0:pd24s1pw                                                =   7.0000       
     0:pd24s1nw                                                =   5.0000       
     0:pd24s2pw                                                =  13.0000       
     0:pd24s2nw                                                =   5.0000       
     0:pd416s3pw                                               =   9.0000       
     0:pd416s3nw                                               =   5.0000       
     0:pd416s4pw                                               =  12.0000       
     0:pd416s4nw                                               =   5.0000       
     0:pd416s5pw                                               =  12.0000       
     0:pd416s5nw                                               =   5.0000       
     0:pd416s6pw                                               =  30.0000       
     0:pd416s6nw                                               =  10.0000       
     0:dss7pw                                                  =   9.0000       
     0:dss7nw                                                  =   5.0000       
     0:dss8pw                                                  =  18.0000       
     0:dss8nw                                                  =   7.0000       
     0:bds9pw                                                  =  27.0000       
     0:bds9nw                                                  =  13.0000       
     0:bds10pw                                                 =  50.0000       
     0:bds10nw                                                 =   7.0000       
     0:blpcwidth                                               =  80.0000       
     0:wrenpwvdd                                               = 100.0000       
     0:wrenpwwl                                                = 100.0000       
     0:vdd_wr_value                                            = 560.0000m      
     0:max_bit_b                                               =   0.           
     0:wl0_rise                                                =   0.           
     0:wl0_width                                               =   0.           
     0:wl0_fall                                                =   0.           
     0:wl1_rise                                                =   0.           
     0:wl1_fall                                                =   0.           
     0:bl0_split                                               =   0.           
     0:bl1_split                                               =   0.           
     0:bl_pc_overlap                                           =   0.           
     0:bl63_pc_overlap                                         =   0.           
     0:clk-out0                                                =   0.           
     0:precharge                                               =   0.           
     0:sae-out0                                                =   0.           
     0:out0-width                                              =   0.           
     0:idsat_avg                                               =   0.           
     0:write_core_power                                        =   0.           
     0:vcell_power                                             =   0.           
     0:mem_core_power                                          =   0.           
   147:nl                                                      =   2.0000       
   147:nw                                                      =   5.0000       
   147:nm                                                      =   1.0000       
   147:pl                                                      =   2.0000       
   147:pw                                                      =   7.0000       
   147:pm                                                      =   1.0000       
   154:wp                                                      =  24.0000       
   154:lp                                                      =   2.0000       
   154:wn                                                      =   8.0000       
   154:ln                                                      =   2.0000       
   155:wp                                                      =  24.0000       
   155:lp                                                      =   2.0000       
   155:wn                                                      =   8.0000       
   155:ln                                                      =   2.0000       
   156:wp                                                      =  24.0000       
   156:lp                                                      =   2.0000       
   156:wn                                                      =   8.0000       
   156:ln                                                      =   2.0000       
   157:wp                                                      =  24.0000       
   157:lp                                                      =   2.0000       
   157:wn                                                      =   8.0000       
   157:ln                                                      =   2.0000       
   158:wp                                                      =  24.0000       
   158:lp                                                      =   2.0000       
   158:wn                                                      =   8.0000       
   158:ln                                                      =   2.0000       
   159:wp                                                      =  24.0000       
   159:lp                                                      =   2.0000       
   159:wn                                                      =   8.0000       
   159:ln                                                      =   2.0000       
   160:wp                                                      =  24.0000       
   160:lp                                                      =   2.0000       
   160:wn                                                      =   8.0000       
   160:ln                                                      =   2.0000       
   161:wp                                                      =  24.0000       
   161:lp                                                      =   2.0000       
   161:wn                                                      =   8.0000       
   161:ln                                                      =   2.0000       
   162:wp                                                      =  24.0000       
   162:lp                                                      =   2.0000       
   162:wn                                                      =   8.0000       
   162:ln                                                      =   2.0000       
   163:wp                                                      =  24.0000       
   163:lp                                                      =   2.0000       
   163:wn                                                      =   8.0000       
   163:ln                                                      =   2.0000       
   164:wp                                                      =  24.0000       
   164:lp                                                      =   2.0000       
   164:wn                                                      =   8.0000       
   164:ln                                                      =   2.0000       
   165:wp                                                      =  24.0000       
   165:lp                                                      =   2.0000       
   165:wn                                                      =   8.0000       
   165:ln                                                      =   2.0000       




 constants  - tnom         kt           vt           gapsi        ni
            298.15000    4.1163e-21    25.69184m     1.11562    1.2565e+16 
  **info** (part2_decoder_Blocked_Slowed_Switched_WR_Voltages.hsp:100) DC voltage reset to initial transient source value              in source        0:vblock0             new dc=  0.0000D+00
  **warning** (/usr/class/ee313/ee313_spice_header.h:18) Both nodes of element vgnd are connected together; Line ignored.
 ** warning** associated with encrypted blocks were suppressed

  **warning** (part2_decoder_Blocked_Slowed_Switched_WR_Voltages.hsp:110) Unable to find referenced node b0wl0; Output variable ignored. Specify a valid node.
1****** HSPICE -- F-2011.09-SP2 32-BIT (Feb 27 2012) linux ******               
 ******  
 part 2

  ******  circuit element summary tnom=  25.000 temp=  25.000 *****


 **** capacitors
  
  
                                                                    
 element name        5:c1           5:c0        6:c1        6:c0    
 node1               5:predec_25    5:predec    0:sapc_b    0:b3sae 
 node2               0:0            0:0         0:0         0:0     
 model                                                              
 cap eff            22.5300f       22.5300f   560.0000a   560.0000a 
 tc1                 0.             0.          0.          0.      
 tc2                 0.             0.          0.          0.      
 scale               1.0000         1.0000      1.0000      1.0000  
 ic                  0.             0.          0.          0.      
 m                   1.0000         1.0000      1.0000      1.0000  
 w                   0.             0.          0.          0.      
 l                   0.             0.          0.          0.      
 temp               25.0000        25.0000     25.0000     25.0000  
  
  
                                                                
 element name        7:c1        7:c0      54:c2      54:c1     
 node1               0:sapc_b    0:b0sae    0:bl63     0:bl_b63 
 node2               0:0         0:0        0:0        0:0      
 model                                                          
 cap eff           560.0000a   560.0000a   88.0000a   88.0000a  
 tc1                 0.          0.         0.         0.       
 tc2                 0.          0.         0.         0.       
 scale               1.0000      1.0000     1.0000     1.0000   
 ic                  0.          0.         0.         0.       
 m                   1.0000      1.0000     1.0000     1.0000   
 w                   0.          0.         0.         0.       
 l                   0.          0.         0.         0.       
 temp               25.0000     25.0000    25.0000    25.0000   
  
  
                                                                  
 element name       54:c0         55:c2      55:c1       56:c2    
 node1               0:b3wl0_sw    0:bl63     0:bl_b63    0:bl63  
 node2               0:0           0:0        0:0         0:0     
 model                                                            
 cap eff           140.0000a      22.3520f   22.3520f    88.0000a 
 tc1                 0.            0.         0.          0.      
 tc2                 0.            0.         0.          0.      
 scale               1.0000        1.0000     1.0000      1.0000  
 ic                  0.            0.         0.          0.      
 m                   1.0000      254.0000   254.0000      1.0000  
 w                   0.            0.         0.          0.      
 l                   0.            0.         0.          0.      
 temp               25.0000       25.0000    25.0000     25.0000  
  
  
                                                                      
 element name       56:c1       56:c0         57:c2        57:c1      
 node1               0:bl_b63    0:b3wl255_    4:net0207    4:net0206 
 node2               0:0         0:0           0:0          0:0       
 model                                                                
 cap eff            88.0000a   140.0000a       5.5440f      5.5440f   
 tc1                 0.          0.            0.           0.        
 tc2                 0.          0.            0.           0.        
 scale               1.0000      1.0000        1.0000       1.0000    
 ic                  0.          0.            0.           0.        
 m                   1.0000      1.0000       63.0000      63.0000    
 w                   0.          0.            0.           0.        
 l                   0.          0.            0.           0.        
 temp               25.0000     25.0000       25.0000      25.0000    
  
  
                                                                       
 element name       57:c0         58:c2        58:c1        59:c2      
 node1               0:b3wl0_sw    4:net0207    4:net0206    4:net0207 
 node2               0:0           0:0          0:0          0:0       
 model                                                                 
 cap eff             8.8200f       1.4080p      1.4080p      5.5440f   
 tc1                 0.            0.           0.           0.        
 tc2                 0.            0.           0.           0.        
 scale               1.0000        1.0000       1.0000       1.0000    
 ic                  0.            0.           0.           0.        
 m                  63.0000       16.0000k     16.0000k     63.0000    
 w                   0.            0.           0.           0.        
 l                   0.            0.           0.           0.        
 temp               25.0000       25.0000      25.0000      25.0000    
  
  
                                                                       
 element name       59:c1        59:c0         60:c2        60:c1      
 node1               4:net0206    0:b3wl255_    4:net0163    4:net0162 
 node2               0:0          0:0           0:0          0:0       
 model                                                                 
 cap eff             5.5440f      8.8200f       5.6320f      5.6320f   
 tc1                 0.           0.            0.           0.        
 tc2                 0.           0.            0.           0.        
 scale               1.0000       1.0000        1.0000       1.0000    
 ic                  0.           0.            0.           0.        
 m                  63.0000      63.0000       64.0000      64.0000    
 w                   0.           0.            0.           0.        
 l                   0.           0.            0.           0.        
 temp               25.0000      25.0000       25.0000      25.0000    
  
  
                                                                        
 element name       60:c0         61:c2        61:c1        61:c0       
 node1               0:b2wl255_    4:net0163    4:net0162    0:b2wl0_sw 
 node2               0:0           0:0          0:0          0:0        
 model                                                                  
 cap eff             8.9600f       5.6320f      5.6320f      8.9600f    
 tc1                 0.            0.           0.           0.         
 tc2                 0.            0.           0.           0.         
 scale               1.0000        1.0000       1.0000       1.0000     
 ic                  0.            0.           0.           0.         
 m                  64.0000       64.0000      64.0000      64.0000     
 w                   0.            0.           0.           0.         
 l                   0.            0.           0.           0.         
 temp               25.0000       25.0000      25.0000      25.0000     
  
  
                                                                      
 element name       62:c2        62:c1        63:c2        63:c1      
 node1               4:net0163    4:net0162    4:net0180    4:net0136 
 node2               0:0          0:0          0:0          0:0       
 model                                                                
 cap eff             1.4309p      1.4309p      5.6320f      5.6320f   
 tc1                 0.           0.           0.           0.        
 tc2                 0.           0.           0.           0.        
 scale               1.0000       1.0000       1.0000       1.0000    
 ic                  0.           0.           0.           0.        
 m                  16.2600k     16.2600k     64.0000      64.0000    
 w                   0.           0.           0.           0.        
 l                   0.           0.           0.           0.        
 temp               25.0000      25.0000      25.0000      25.0000    
  
  
                                                                        
 element name       63:c0         64:c2        64:c1        64:c0       
 node1               0:b1wl0_sw    4:net0234    4:net0233    0:b0wl255_ 
 node2               0:0           0:0          0:0          0:0        
 model                                                                  
 cap eff             8.9600f       5.5440f      5.5440f      8.8200f    
 tc1                 0.            0.           0.           0.         
 tc2                 0.            0.           0.           0.         
 scale               1.0000        1.0000       1.0000       1.0000     
 ic                  0.            0.           0.           0.         
 m                  64.0000       63.0000      63.0000      63.0000     
 w                   0.            0.           0.           0.         
 l                   0.            0.           0.           0.         
 temp               25.0000       25.0000      25.0000      25.0000     
  
  
                                                                 
 element name       65:c2      65:c1      65:c0         66:c2    
 node1               0:bl0      0:bl_b0    0:b0wl255_    0:bl0   
 node2               0:0        0:0        0:0           0:0     
 model                                                           
 cap eff            88.0000a   88.0000a  140.0000a      22.3520f 
 tc1                 0.         0.         0.            0.      
 tc2                 0.         0.         0.            0.      
 scale               1.0000     1.0000     1.0000        1.0000  
 ic                  0.         0.         0.            0.      
 m                   1.0000     1.0000     1.0000      254.0000  
 w                   0.         0.         0.            0.      
 l                   0.         0.         0.            0.      
 temp               25.0000    25.0000    25.0000       25.0000  
  
  
                                                                    
 element name       66:c1      67:c2        67:c1        68:c2      
 node1               0:bl_b0    4:net0234    4:net0233    4:net0180 
 node2               0:0        0:0          0:0          0:0       
 model                                                              
 cap eff            22.3520f    1.4080p      1.4080p      1.4309p   
 tc1                 0.         0.           0.           0.        
 tc2                 0.         0.           0.           0.        
 scale               1.0000     1.0000       1.0000       1.0000    
 ic                  0.         0.           0.           0.        
 m                 254.0000    16.0000k     16.0000k     16.2600k   
 w                   0.         0.           0.           0.        
 l                   0.         0.           0.           0.        
 temp               25.0000    25.0000      25.0000      25.0000    
  
  
                                                                       
 element name       68:c1        69:c2        69:c1        69:c0       
 node1               4:net0136    4:net0180    4:net0136    0:b1wl255_ 
 node2               0:0          0:0          0:0          0:0        
 model                                                                 
 cap eff             1.4309p      5.6320f      5.6320f      8.9600f    
 tc1                 0.           0.           0.           0.         
 tc2                 0.           0.           0.           0.         
 scale               1.0000       1.0000       1.0000       1.0000     
 ic                  0.           0.           0.           0.         
 m                  16.2600k     64.0000      64.0000      64.0000     
 w                   0.           0.           0.           0.         
 l                   0.           0.           0.           0.         
 temp               25.0000      25.0000      25.0000      25.0000     
  
  
                                                                     
 element name       70:c2        70:c1        70:c0         71:c2    
 node1               4:net0234    4:net0233    0:b0wl0_sw    0:bl0   
 node2               0:0          0:0          0:0           0:0     
 model                                                               
 cap eff             5.5440f      5.5440f      8.8200f      88.0000a 
 tc1                 0.           0.           0.            0.      
 tc2                 0.           0.           0.            0.      
 scale               1.0000       1.0000       1.0000        1.0000  
 ic                  0.           0.           0.            0.      
 m                  63.0000      63.0000      63.0000        1.0000  
 w                   0.           0.           0.            0.      
 l                   0.           0.           0.            0.      
 temp               25.0000      25.0000      25.0000       25.0000  
  
  
                                           
 element name       71:c1      71:c0       
 node1               0:bl_b0    0:b0wl0_sw 
 node2               0:0        0:0        
 model                                     
 cap eff            88.0000a  140.0000a    
 tc1                 0.         0.         
 tc2                 0.         0.         
 scale               1.0000     1.0000     
 ic                  0.         0.         
 m                   1.0000     1.0000     
 w                   0.         0.         
 l                   0.         0.         
 temp               25.0000    25.0000     


 **** voltage-controlled voltage sources
      name        +             -          dimension  function  scale
       98:e_0            98:net_3           0:0              1      poly       1.    
       99:e_0            99:net_3           0:0              1      poly       1.    
      100:e_0           100:net_3           0:0              1      poly       1.    


 **** current-controlled current sources
      name        +             -          dimension  function  multiplier
       98:f_0            98:net_4           0:0              1      poly       1.    
       98:f_1            98:net_4           0:0              1      poly       1.    
       99:f_0            99:net_4           0:0              1      poly       1.    
       99:f_1            99:net_4           0:0              1      poly       1.    
      100:f_0           100:net_4           0:0              1      poly       1.    
      100:f_1           100:net_4           0:0              1      poly       1.    


 **** independent sources

     name         node1        node2      dc volt    ac mag    ac phase    type
  v_supply  vdd               0                  700.0000m    0.         0.      dc   
  v_supply1  vdd!              0                  700.0000m    0.         0.      dc   
  vblock0  block0            0                    0.         0.         0.      pulse
             initial value     0.     
             pulsed value.   700.0000m
             delay time...   500.0000p
             risetime.....    50.0000p
             falltime.....    50.0000p
             width........     2.0000n
             period.......     4.0000n

  vblock3  block3            0                  700.0000m    0.         0.      pulse
             initial value   700.0000m
             pulsed value.     0.     
             delay time...   500.0000p
             risetime.....    50.0000p
             falltime.....    50.0000p
             width........     2.0000n
             period.......     4.0000n

  vvcell  vcell             0                  630.0000m    0.         0.      dc   
  vvdd_wr  vdd_wr            0                  560.0000m    0.         0.      dc   
  vwrdata0  wrdata0           0                    0.         0.         0.      dc   
  vwrdata255  wrdata255         0                  700.0000m    0.         0.      dc   
  vwren  wren              0                    0.         0.         0.      pulse
             initial value     0.     
             pulsed value.   700.0000m
             delay time...     8.5000n
             risetime.....    50.0000p
             falltime.....    50.0000p
             width........     4.0000n
             period.......    12.0000n

 xclk_gen.vsrc xclk_gen.src               0                    0.         0.         0.      pulse
             initial value     0.     
             pulsed value.   700.0000m
             delay time...   500.0000p
             risetime.....    50.0000p
             falltime.....    50.0000p
             width........   450.0000p
             period.......     1.0000n

 xa0_gen.vsrc xa0_gen.src               0                    0.         0.         0.      pulse
             initial value     0.     
             pulsed value.   700.0000m
             delay time...   375.0000p
             risetime.....    50.0000p
             falltime.....    50.0000p
             width........   950.0000p
             period.......     2.0000n

 xa255_gen.vsrc xa255_gen.src               0                    0.         0.         0.      pulse
             initial value     0.     
             pulsed value.   700.0000m
             delay time...     1.3750n
             risetime.....    50.0000p
             falltime.....    50.0000p
             width........   950.0000p
             period.......     2.0000n

 xclk_gen.xgen.v_monitor xclk_gen.xgen.net_4             0                  700.0000m    0.         0.      dc   
 xclk_gen.xgen.v_sense xclk_gen.xgen.net_3             ck                   0.         0.         0.      dc   
 xa0_gen.xgen.v_monitor xa0_gen.xgen.net_4             0                  700.0000m    0.         0.      dc   
 xa0_gen.xgen.v_sense xa0_gen.xgen.net_3             a0                   0.         0.         0.      dc   
 xa255_gen.xgen.v_monitor xa255_gen.xgen.net_4             0                  700.0000m    0.         0.      dc   
 xa255_gen.xgen.v_sense xa255_gen.xgen.net_3             a255                 0.         0.         0.      dc   
 xclk_gen.xgen.x_0.x_0.vstimulus_supply xclk_gen.xgen.x_0.x_0.vdd_stimulus      0                  700.0000m    0.         0.      dc   
 xclk_gen.xgen.x_0.x_1.vstimulus_supply xclk_gen.xgen.x_0.x_1.vdd_stimulus      0                  700.0000m    0.         0.      dc   
 xclk_gen.xgen.x_0.x_2.vstimulus_supply xclk_gen.xgen.x_0.x_2.vdd_stimulus      0                  700.0000m    0.         0.      dc   
 xclk_gen.xgen.x_0.x_3.vstimulus_supply xclk_gen.xgen.x_0.x_3.vdd_stimulus      0                  700.0000m    0.         0.      dc   
 xa0_gen.xgen.x_0.x_0.vstimulus_supply xa0_gen.xgen.x_0.x_0.vdd_stimulus      0                  700.0000m    0.         0.      dc   
 xa0_gen.xgen.x_0.x_1.vstimulus_supply xa0_gen.xgen.x_0.x_1.vdd_stimulus      0                  700.0000m    0.         0.      dc   
 xa0_gen.xgen.x_0.x_2.vstimulus_supply xa0_gen.xgen.x_0.x_2.vdd_stimulus      0                  700.0000m    0.         0.      dc   
 xa0_gen.xgen.x_0.x_3.vstimulus_supply xa0_gen.xgen.x_0.x_3.vdd_stimulus      0                  700.0000m    0.         0.      dc   
 xa255_gen.xgen.x_0.x_0.vstimulus_supply xa255_gen.xgen.x_0.x_0.vdd_stimulus      0                  700.0000m    0.         0.      dc   
 xa255_gen.xgen.x_0.x_1.vstimulus_supply xa255_gen.xgen.x_0.x_1.vdd_stimulus      0                  700.0000m    0.         0.      dc   
 xa255_gen.xgen.x_0.x_2.vstimulus_supply xa255_gen.xgen.x_0.x_2.vdd_stimulus      0                  700.0000m    0.         0.      dc   
 xa255_gen.xgen.x_0.x_3.vstimulus_supply xa255_gen.xgen.x_0.x_3.vdd_stimulus      0                  700.0000m    0.         0.      dc   


 **** mosfets


 **** BSIM4 Model (Level 54)
  
  
                                                                
 element name        6:m4       6:m3       6:meq       6:mpc2   
 drain               6:sbl_b    0:vdd!     6:sbl       0:vdd!   
 gate                6:sbl      6:sbl_b    0:sapc_b    0:sapc_b 
 source              0:vdd!     6:sbl      6:sbl_b     6:sbl_b  
 bulk                0:vdd!     0:vdd!     0:vdd!      0:vdd!   
 model               0:pmos     0:pmos     0:pmos      0:pmos   
 w eff              78.0000n   78.0000n  166.0000n   166.0000n  
 l eff              29.0000n   29.0000n   29.0000n    29.0000n  
 rd eff              0.         0.         0.          0.       
 rs eff              0.         0.         0.          0.       
 cdsat               7.8700a    7.8700a   15.1073a    15.1073a  
 cssat               7.8700a    7.8700a   15.1073a    15.1073a  
 capbd             133.6681a  133.6681a  223.4243a   223.4243a  
 capbs             116.1033a  116.1033a  188.2947a   188.2947a  
 temp               25.0000    25.0000    25.0000     25.0000   
 aic                                                            
 nf                  1.0000     1.0000     1.0000      1.0000   
 min                 0.         0.         0.          0.       
 rbdb               15.0000    15.0000    15.0000     15.0000   
 rbsb               15.0000    15.0000    15.0000     15.0000   
 rbpb                5.0000     5.0000     5.0000      5.0000   
 rbps               15.0000    15.0000    15.0000     15.0000   
 rbpd               15.0000    15.0000    15.0000     15.0000   
 trnqsmod            0.         0.         0.          0.       
 acnqsmod            0.         0.         0.          0.       
 rbodymod            1.0000     1.0000     1.0000      1.0000   
 rgatemod            1.0000     1.0000     1.0000      1.0000   
 geomod              0.         0.         0.          0.       
 rgeomod             0.         0.         0.          0.       
 delvto              0.         0.         0.          0.       
 mulu0               1.0000     1.0000     1.0000      1.0000   
 delk1               0.         0.         0.          0.       
 delnfct             0.         0.         0.          0.       
 deltox              0.         0.         0.          0.       
 sa                  0.         0.         0.          0.       
 sb                  0.         0.         0.          0.       
 sd                  0.         0.         0.          0.       
 saeff               0.         0.         0.          0.       
 sbeff               0.         0.         0.          0.       
  
  
                                                                 
 element name        6:mpc       6:miso_b    6:miso     6:mmx4_b 
 drain               6:sbl       6:sbl_b     6:sbl      6:cmbl_b 
 gate                0:sapc_b    0:b3sae     0:b3sae    0:vdd!   
 source              0:vdd!      6:cmbl_b    6:cmbl     0:vdd!   
 bulk                0:vdd!      0:vdd!      0:vdd!     0:vdd!   
 model               0:pmos      0:pmos      0:pmos     0:pmos   
 w eff             166.0000n   254.0000n   254.0000n  518.0000n  
 l eff              29.0000n    29.0000n    29.0000n   29.0000n  
 rd eff              0.          0.          0.         0.       
 rs eff              0.          0.          0.         0.       
 cdsat              15.1073a    22.3447a    22.3447a   44.0567a  
 cssat              15.1073a    22.3447a    22.3447a   44.0567a  
 capbd             223.4243a   313.1804a   313.1804a  582.4488a  
 capbs             188.2947a   260.4860a   260.4860a  477.0600a  
 temp               25.0000     25.0000     25.0000    25.0000   
 aic                                                             
 nf                  1.0000      1.0000      1.0000     1.0000   
 min                 0.          0.          0.         0.       
 rbdb               15.0000     15.0000     15.0000    15.0000   
 rbsb               15.0000     15.0000     15.0000    15.0000   
 rbpb                5.0000      5.0000      5.0000     5.0000   
 rbps               15.0000     15.0000     15.0000    15.0000   
 rbpd               15.0000     15.0000     15.0000    15.0000   
 trnqsmod            0.          0.          0.         0.       
 acnqsmod            0.          0.          0.         0.       
 rbodymod            1.0000      1.0000      1.0000     1.0000   
 rgatemod            1.0000      1.0000      1.0000     1.0000   
 geomod              0.          0.          0.         0.       
 rgeomod             0.          0.          0.         0.       
 delvto              0.          0.          0.         0.       
 mulu0               1.0000      1.0000      1.0000     1.0000   
 delk1               0.          0.          0.         0.       
 delnfct             0.          0.          0.         0.       
 deltox              0.          0.          0.         0.       
 sa                  0.          0.          0.         0.       
 sb                  0.          0.          0.         0.       
 sd                  0.          0.          0.         0.       
 saeff               0.          0.          0.         0.       
 sbeff               0.          0.          0.         0.       
  
  
                                                                
 element name        6:mmx4     6:mmx3_b    6:mmx3     6:mmx2_b 
 drain               6:cmbl     6:cmbl_b    6:cmbl     6:cmbl_b 
 gate                0:vdd!     0:vdd!      0:vdd!     0:vdd!   
 source              0:vdd!     0:vdd!      0:vdd!     0:vdd!   
 bulk                0:vdd!     0:vdd!      0:vdd!     0:vdd!   
 model               0:pmos     0:pmos      0:pmos     0:pmos   
 w eff             518.0000n  518.0000n   518.0000n  518.0000n  
 l eff              29.0000n   29.0000n    29.0000n   29.0000n  
 rd eff              0.         0.          0.         0.       
 rs eff              0.         0.          0.         0.       
 cdsat              44.0567a   44.0567a    44.0567a   44.0567a  
 cssat              44.0567a   44.0567a    44.0567a   44.0567a  
 capbd             582.4488a  582.4488a   582.4488a  582.4488a  
 capbs             477.0600a  477.0600a   477.0600a  477.0600a  
 temp               25.0000    25.0000     25.0000    25.0000   
 aic                                                            
 nf                  1.0000     1.0000      1.0000     1.0000   
 min                 0.         0.          0.         0.       
 rbdb               15.0000    15.0000     15.0000    15.0000   
 rbsb               15.0000    15.0000     15.0000    15.0000   
 rbpb                5.0000     5.0000      5.0000     5.0000   
 rbps               15.0000    15.0000     15.0000    15.0000   
 rbpd               15.0000    15.0000     15.0000    15.0000   
 trnqsmod            0.         0.          0.         0.       
 acnqsmod            0.         0.          0.         0.       
 rbodymod            1.0000     1.0000      1.0000     1.0000   
 rgatemod            1.0000     1.0000      1.0000     1.0000   
 geomod              0.         0.          0.         0.       
 rgeomod             0.         0.          0.         0.       
 delvto              0.         0.          0.         0.       
 mulu0               1.0000     1.0000      1.0000     1.0000   
 delk1               0.         0.          0.         0.       
 delnfct             0.         0.          0.         0.       
 deltox              0.         0.          0.         0.       
 sa                  0.         0.          0.         0.       
 sb                  0.         0.          0.         0.       
 sd                  0.         0.          0.         0.       
 saeff               0.         0.          0.         0.       
 sbeff               0.         0.          0.         0.       
  
  
                                                                    
 element name        6:mmx2     6:mmx_b       6:mmx         6:mtail 
 drain               6:cmbl     6:cmbl_b      6:cmbl        6:tail  
 gate                0:vdd!     0:b3sel_b6    0:b3sel_b6    0:b3sae 
 source              0:vdd!     0:bl_b63      0:bl63        0:0     
 bulk                0:vdd!     0:vdd!        0:vdd!        0:0     
 model               0:pmos     0:pmos        0:pmos        0:nmos  
 w eff             518.0000n  518.0000n     518.0000n     166.0000n 
 l eff              29.0000n   29.0000n      29.0000n      29.0000n 
 rd eff              0.         0.            0.            0.      
 rs eff              0.         0.            0.            0.      
 cdsat              44.0567a   44.0567a      44.0567a      15.1073a 
 cssat              44.0567a   44.0567a      44.0567a      15.1073a 
 capbd             582.4488a  582.4488a     582.4488a     223.4243a 
 capbs             477.0600a  477.0600a     477.0600a     188.2947a 
 temp               25.0000    25.0000       25.0000       25.0000  
 aic                                                                
 nf                  1.0000     1.0000        1.0000        1.0000  
 min                 0.         0.            0.            0.      
 rbdb               15.0000    15.0000       15.0000       15.0000  
 rbsb               15.0000    15.0000       15.0000       15.0000  
 rbpb                5.0000     5.0000        5.0000        5.0000  
 rbps               15.0000    15.0000       15.0000       15.0000  
 rbpd               15.0000    15.0000       15.0000       15.0000  
 trnqsmod            0.         0.            0.            0.      
 acnqsmod            0.         0.            0.            0.      
 rbodymod            1.0000     1.0000        1.0000        1.0000  
 rgatemod            1.0000     1.0000        1.0000        1.0000  
 geomod              0.         0.            0.            0.      
 rgeomod             0.         0.            0.            0.      
 delvto              0.         0.            0.            0.      
 mulu0               1.0000     1.0000        1.0000        1.0000  
 delk1               0.         0.            0.            0.      
 delnfct             0.         0.            0.            0.      
 deltox              0.         0.            0.            0.      
 sa                  0.         0.            0.            0.      
 sb                  0.         0.            0.            0.      
 sd                  0.         0.            0.            0.      
 saeff               0.         0.            0.            0.      
 sbeff               0.         0.            0.            0.      
  
  
                                                              
 element name        6:m1       6:m2       7:m4       7:m3    
 drain               6:tail     6:sbl_b    7:sbl_b    0:vdd!  
 gate                6:sbl_b    6:sbl      7:sbl      7:sbl_b 
 source              6:sbl      6:tail     0:vdd!     7:sbl   
 bulk                0:0        0:0        0:vdd!     0:vdd!  
 model               0:nmos     0:nmos     0:pmos     0:pmos  
 w eff             122.0000n  122.0000n   78.0000n   78.0000n 
 l eff              29.0000n   29.0000n   29.0000n   29.0000n 
 rd eff              0.         0.         0.         0.      
 rs eff              0.         0.         0.         0.      
 cdsat              11.4887a   11.4887a    7.8700a    7.8700a 
 cssat              11.4887a   11.4887a    7.8700a    7.8700a 
 capbd             178.5462a  178.5462a  133.6681a  133.6681a 
 capbs             152.1990a  152.1990a  116.1033a  116.1033a 
 temp               25.0000    25.0000    25.0000    25.0000  
 aic                                                          
 nf                  1.0000     1.0000     1.0000     1.0000  
 min                 0.         0.         0.         0.      
 rbdb               15.0000    15.0000    15.0000    15.0000  
 rbsb               15.0000    15.0000    15.0000    15.0000  
 rbpb                5.0000     5.0000     5.0000     5.0000  
 rbps               15.0000    15.0000    15.0000    15.0000  
 rbpd               15.0000    15.0000    15.0000    15.0000  
 trnqsmod            0.         0.         0.         0.      
 acnqsmod            0.         0.         0.         0.      
 rbodymod            1.0000     1.0000     1.0000     1.0000  
 rgatemod            1.0000     1.0000     1.0000     1.0000  
 geomod              0.         0.         0.         0.      
 rgeomod             0.         0.         0.         0.      
 delvto              0.         0.         0.         0.      
 mulu0               1.0000     1.0000     1.0000     1.0000  
 delk1               0.         0.         0.         0.      
 delnfct             0.         0.         0.         0.      
 deltox              0.         0.         0.         0.      
 sa                  0.         0.         0.         0.      
 sb                  0.         0.         0.         0.      
 sd                  0.         0.         0.         0.      
 saeff               0.         0.         0.         0.      
 sbeff               0.         0.         0.         0.      
  
  
                                                                  
 element name        7:meq       7:mpc2      7:mpc       7:miso_b 
 drain               7:sbl       0:vdd!      7:sbl       7:sbl_b  
 gate                0:sapc_b    0:sapc_b    0:sapc_b    0:b0sae  
 source              7:sbl_b     7:sbl_b     0:vdd!      7:cmbl_b 
 bulk                0:vdd!      0:vdd!      0:vdd!      0:vdd!   
 model               0:pmos      0:pmos      0:pmos      0:pmos   
 w eff             166.0000n   166.0000n   166.0000n   254.0000n  
 l eff              29.0000n    29.0000n    29.0000n    29.0000n  
 rd eff              0.          0.          0.          0.       
 rs eff              0.          0.          0.          0.       
 cdsat              15.1073a    15.1073a    15.1073a    22.3447a  
 cssat              15.1073a    15.1073a    15.1073a    22.3447a  
 capbd             223.4243a   223.4243a   223.4243a   313.1804a  
 capbs             188.2947a   188.2947a   188.2947a   260.4860a  
 temp               25.0000     25.0000     25.0000     25.0000   
 aic                                                              
 nf                  1.0000      1.0000      1.0000      1.0000   
 min                 0.          0.          0.          0.       
 rbdb               15.0000     15.0000     15.0000     15.0000   
 rbsb               15.0000     15.0000     15.0000     15.0000   
 rbpb                5.0000      5.0000      5.0000      5.0000   
 rbps               15.0000     15.0000     15.0000     15.0000   
 rbpd               15.0000     15.0000     15.0000     15.0000   
 trnqsmod            0.          0.          0.          0.       
 acnqsmod            0.          0.          0.          0.       
 rbodymod            1.0000      1.0000      1.0000      1.0000   
 rgatemod            1.0000      1.0000      1.0000      1.0000   
 geomod              0.          0.          0.          0.       
 rgeomod             0.          0.          0.          0.       
 delvto              0.          0.          0.          0.       
 mulu0               1.0000      1.0000      1.0000      1.0000   
 delk1               0.          0.          0.          0.       
 delnfct             0.          0.          0.          0.       
 deltox              0.          0.          0.          0.       
 sa                  0.          0.          0.          0.       
 sb                  0.          0.          0.          0.       
 sd                  0.          0.          0.          0.       
 saeff               0.          0.          0.          0.       
 sbeff               0.          0.          0.          0.       
  
  
                                                                
 element name        7:miso     7:mmx4_b    7:mmx4     7:mmx3_b 
 drain               7:sbl      7:cmbl_b    7:cmbl     7:cmbl_b 
 gate                0:b0sae    0:vdd!      0:vdd!     0:vdd!   
 source              7:cmbl     0:vdd!      0:vdd!     0:vdd!   
 bulk                0:vdd!     0:vdd!      0:vdd!     0:vdd!   
 model               0:pmos     0:pmos      0:pmos     0:pmos   
 w eff             254.0000n  518.0000n   518.0000n  518.0000n  
 l eff              29.0000n   29.0000n    29.0000n   29.0000n  
 rd eff              0.         0.          0.         0.       
 rs eff              0.         0.          0.         0.       
 cdsat              22.3447a   44.0567a    44.0567a   44.0567a  
 cssat              22.3447a   44.0567a    44.0567a   44.0567a  
 capbd             313.1804a  582.4488a   582.4488a  582.4488a  
 capbs             260.4860a  477.0600a   477.0600a  477.0600a  
 temp               25.0000    25.0000     25.0000    25.0000   
 aic                                                            
 nf                  1.0000     1.0000      1.0000     1.0000   
 min                 0.         0.          0.         0.       
 rbdb               15.0000    15.0000     15.0000    15.0000   
 rbsb               15.0000    15.0000     15.0000    15.0000   
 rbpb                5.0000     5.0000      5.0000     5.0000   
 rbps               15.0000    15.0000     15.0000    15.0000   
 rbpd               15.0000    15.0000     15.0000    15.0000   
 trnqsmod            0.         0.          0.         0.       
 acnqsmod            0.         0.          0.         0.       
 rbodymod            1.0000     1.0000      1.0000     1.0000   
 rgatemod            1.0000     1.0000      1.0000     1.0000   
 geomod              0.         0.          0.         0.       
 rgeomod             0.         0.          0.         0.       
 delvto              0.         0.          0.         0.       
 mulu0               1.0000     1.0000      1.0000     1.0000   
 delk1               0.         0.          0.         0.       
 delnfct             0.         0.          0.         0.       
 deltox              0.         0.          0.         0.       
 sa                  0.         0.          0.         0.       
 sb                  0.         0.          0.         0.       
 sd                  0.         0.          0.         0.       
 saeff               0.         0.          0.         0.       
 sbeff               0.         0.          0.         0.       
  
  
                                                                  
 element name        7:mmx3     7:mmx2_b    7:mmx2     7:mmx_b    
 drain               7:cmbl     7:cmbl_b    7:cmbl     7:cmbl_b   
 gate                0:vdd!     0:vdd!      0:vdd!     0:b0sel_b0 
 source              0:vdd!     0:vdd!      0:vdd!     0:bl_b0    
 bulk                0:vdd!     0:vdd!      0:vdd!     0:vdd!     
 model               0:pmos     0:pmos      0:pmos     0:pmos     
 w eff             518.0000n  518.0000n   518.0000n  518.0000n    
 l eff              29.0000n   29.0000n    29.0000n   29.0000n    
 rd eff              0.         0.          0.         0.         
 rs eff              0.         0.          0.         0.         
 cdsat              44.0567a   44.0567a    44.0567a   44.0567a    
 cssat              44.0567a   44.0567a    44.0567a   44.0567a    
 capbd             582.4488a  582.4488a   582.4488a  582.4488a    
 capbs             477.0600a  477.0600a   477.0600a  477.0600a    
 temp               25.0000    25.0000     25.0000    25.0000     
 aic                                                              
 nf                  1.0000     1.0000      1.0000     1.0000     
 min                 0.         0.          0.         0.         
 rbdb               15.0000    15.0000     15.0000    15.0000     
 rbsb               15.0000    15.0000     15.0000    15.0000     
 rbpb                5.0000     5.0000      5.0000     5.0000     
 rbps               15.0000    15.0000     15.0000    15.0000     
 rbpd               15.0000    15.0000     15.0000    15.0000     
 trnqsmod            0.         0.          0.         0.         
 acnqsmod            0.         0.          0.         0.         
 rbodymod            1.0000     1.0000      1.0000     1.0000     
 rgatemod            1.0000     1.0000      1.0000     1.0000     
 geomod              0.         0.          0.         0.         
 rgeomod             0.         0.          0.         0.         
 delvto              0.         0.          0.         0.         
 mulu0               1.0000     1.0000      1.0000     1.0000     
 delk1               0.         0.          0.         0.         
 delnfct             0.         0.          0.         0.         
 deltox              0.         0.          0.         0.         
 sa                  0.         0.          0.         0.         
 sb                  0.         0.          0.         0.         
 sd                  0.         0.          0.         0.         
 saeff               0.         0.          0.         0.         
 sbeff               0.         0.          0.         0.         
  
  
                                                                 
 element name        7:mmx         7:mtail    7:m1       7:m2    
 drain               7:cmbl        7:tail     7:tail     7:sbl_b 
 gate                0:b0sel_b0    0:b0sae    7:sbl_b    7:sbl   
 source              0:bl0         0:0        7:sbl      7:tail  
 bulk                0:vdd!        0:0        0:0        0:0     
 model               0:pmos        0:nmos     0:nmos     0:nmos  
 w eff             518.0000n     166.0000n  122.0000n  122.0000n 
 l eff              29.0000n      29.0000n   29.0000n   29.0000n 
 rd eff              0.            0.         0.         0.      
 rs eff              0.            0.         0.         0.      
 cdsat              44.0567a      15.1073a   11.4887a   11.4887a 
 cssat              44.0567a      15.1073a   11.4887a   11.4887a 
 capbd             582.4488a     223.4243a  178.5462a  178.5462a 
 capbs             477.0600a     188.2947a  152.1990a  152.1990a 
 temp               25.0000       25.0000    25.0000    25.0000  
 aic                                                             
 nf                  1.0000        1.0000     1.0000     1.0000  
 min                 0.            0.         0.         0.      
 rbdb               15.0000       15.0000    15.0000    15.0000  
 rbsb               15.0000       15.0000    15.0000    15.0000  
 rbpb                5.0000        5.0000     5.0000     5.0000  
 rbps               15.0000       15.0000    15.0000    15.0000  
 rbpd               15.0000       15.0000    15.0000    15.0000  
 trnqsmod            0.            0.         0.         0.      
 acnqsmod            0.            0.         0.         0.      
 rbodymod            1.0000        1.0000     1.0000     1.0000  
 rgatemod            1.0000        1.0000     1.0000     1.0000  
 geomod              0.            0.         0.         0.      
 rgeomod             0.            0.         0.         0.      
 delvto              0.            0.         0.         0.      
 mulu0               1.0000        1.0000     1.0000     1.0000  
 delk1               0.            0.         0.         0.      
 delnfct             0.            0.         0.         0.      
 deltox              0.            0.         0.         0.      
 sa                  0.            0.         0.         0.      
 sb                  0.            0.         0.         0.      
 sd                  0.            0.         0.         0.      
 saeff               0.            0.         0.         0.      
 sbeff               0.            0.         0.         0.      
  
  
                                                                  
 element name       12:m1       12:m2       13:m1       13:m2     
 drain               0:sapc_b    0:sapc_b    1:net026    1:net026 
 gate                1:net031    1:net031    0:ck        0:ck     
 source              0:vdd!      0:0         0:vdd!      0:0      
 bulk                0:vdd!      0:0         0:vdd!      0:0      
 model               0:pmos      0:nmos      0:pmos      0:nmos   
 w eff               2.5860u   870.0000n   254.0000n    78.0000n  
 l eff              29.0000n    29.0000n    29.0000n    29.0000n  
 rd eff              0.          0.          0.          0.       
 rs eff              0.          0.          0.          0.       
 cdsat             214.1345a    73.0062a    22.3447a     7.8700a  
 cssat             214.1345a    73.0062a    22.3447a     7.8700a  
 capbd               2.6917f   941.4733a   313.1804a   133.6681a  
 capbs               2.1736f   765.8253a   260.4860a   116.1033a  
 temp               25.0000     25.0000     25.0000     25.0000   
 aic                                                              
 nf                  1.0000      1.0000      1.0000      1.0000   
 min                 0.          0.          0.          0.       
 rbdb               15.0000     15.0000     15.0000     15.0000   
 rbsb               15.0000     15.0000     15.0000     15.0000   
 rbpb                5.0000      5.0000      5.0000      5.0000   
 rbps               15.0000     15.0000     15.0000     15.0000   
 rbpd               15.0000     15.0000     15.0000     15.0000   
 trnqsmod            0.          0.          0.          0.       
 acnqsmod            0.          0.          0.          0.       
 rbodymod            1.0000      1.0000      1.0000      1.0000   
 rgatemod            1.0000      1.0000      1.0000      1.0000   
 geomod              0.          0.          0.          0.       
 rgeomod             0.          0.          0.          0.       
 delvto              0.          0.          0.          0.       
 mulu0               1.0000      1.0000      1.0000      1.0000   
 delk1               0.          0.          0.          0.       
 delnfct             0.          0.          0.          0.       
 deltox              0.          0.          0.          0.       
 sa                  0.          0.          0.          0.       
 sb                  0.          0.          0.          0.       
 sd                  0.          0.          0.          0.       
 saeff               0.          0.          0.          0.       
 sbeff               0.          0.          0.          0.       
  
  
                                                                
 element name       14:m1       14:m2       15:m1      15:m2    
 drain               1:net029    1:net029    0:b3sae    0:b3sae 
 gate                0:ck        0:ck        1:net15    1:net15 
 source              0:vdd!      0:0         0:vdd!     0:0     
 bulk                0:vdd!      0:0         0:vdd!     0:0     
 model               0:pmos      0:nmos      0:pmos     0:nmos  
 w eff             254.0000n    78.0000n   254.0000n   78.0000n 
 l eff              29.0000n    29.0000n    29.0000n   29.0000n 
 rd eff              0.          0.          0.         0.      
 rs eff              0.          0.          0.         0.      
 cdsat              22.3447a     7.8700a    22.3447a    7.8700a 
 cssat              22.3447a     7.8700a    22.3447a    7.8700a 
 capbd             313.1804a   133.6681a   313.1804a  133.6681a 
 capbs             260.4860a   116.1033a   260.4860a  116.1033a 
 temp               25.0000     25.0000     25.0000    25.0000  
 aic                                                            
 nf                  1.0000      1.0000      1.0000     1.0000  
 min                 0.          0.          0.         0.      
 rbdb               15.0000     15.0000     15.0000    15.0000  
 rbsb               15.0000     15.0000     15.0000    15.0000  
 rbpb                5.0000      5.0000      5.0000     5.0000  
 rbps               15.0000     15.0000     15.0000    15.0000  
 rbpd               15.0000     15.0000     15.0000    15.0000  
 trnqsmod            0.          0.          0.         0.      
 acnqsmod            0.          0.          0.         0.      
 rbodymod            1.0000      1.0000      1.0000     1.0000  
 rgatemod            1.0000      1.0000      1.0000     1.0000  
 geomod              0.          0.          0.         0.      
 rgeomod             0.          0.          0.         0.      
 delvto              0.          0.          0.         0.      
 mulu0               1.0000      1.0000      1.0000     1.0000  
 delk1               0.          0.          0.         0.      
 delnfct             0.          0.          0.         0.      
 deltox              0.          0.          0.         0.      
 sa                  0.          0.          0.         0.      
 sb                  0.          0.          0.         0.      
 sd                  0.          0.          0.         0.      
 saeff               0.          0.          0.         0.      
 sbeff               0.          0.          0.         0.      
  
  
                                                                        
 element name       16:m1          16:m2          17:m2       17:m0     
 drain               1:sel_b_inv    1:sel_b_inv    1:net15     1:net15  
 gate                1:net020       1:net020       1:net020    0:block3 
 source              0:vdd!         0:0            0:vdd!      0:vdd!   
 bulk                0:vdd!         0:0            0:vdd!      0:vdd!   
 model               0:pmos         0:nmos         0:pmos      0:pmos   
 w eff             254.0000n       78.0000n      254.0000n   254.0000n  
 l eff              29.0000n       29.0000n       29.0000n    29.0000n  
 rd eff              0.             0.             0.          0.       
 rs eff              0.             0.             0.          0.       
 cdsat              22.3447a        7.8700a       22.3447a    22.3447a  
 cssat              22.3447a        7.8700a       22.3447a    22.3447a  
 capbd             313.1804a      133.6681a      313.1804a   313.1804a  
 capbs             260.4860a      116.1033a      260.4860a   260.4860a  
 temp               25.0000        25.0000        25.0000     25.0000   
 aic                                                                    
 nf                  1.0000         1.0000         1.0000      1.0000   
 min                 0.             0.             0.          0.       
 rbdb               15.0000        15.0000        15.0000     15.0000   
 rbsb               15.0000        15.0000        15.0000     15.0000   
 rbpb                5.0000         5.0000         5.0000      5.0000   
 rbps               15.0000        15.0000        15.0000     15.0000   
 rbpd               15.0000        15.0000        15.0000     15.0000   
 trnqsmod            0.             0.             0.          0.       
 acnqsmod            0.             0.             0.          0.       
 rbodymod            1.0000         1.0000         1.0000      1.0000   
 rgatemod            1.0000         1.0000         1.0000      1.0000   
 geomod              0.             0.             0.          0.       
 rgeomod             0.             0.             0.          0.       
 delvto              0.             0.             0.          0.       
 mulu0               1.0000         1.0000         1.0000      1.0000   
 delk1               0.             0.             0.          0.       
 delnfct             0.             0.             0.          0.       
 deltox              0.             0.             0.          0.       
 sa                  0.             0.             0.          0.       
 sb                  0.             0.             0.          0.       
 sd                  0.             0.             0.          0.       
 saeff               0.             0.             0.          0.       
 sbeff               0.             0.             0.          0.       
  
  
                                                                       
 element name       17:m3       17:m1       18:m2         18:m0        
 drain              17:mid_a     1:net15     0:b3sel_b6    0:b3sel_b6  
 gate                1:net020    0:block3    0:block3      1:sel_b_inv 
 source              0:0        17:mid_a     0:vdd!        0:vdd!      
 bulk                0:0         0:0         0:vdd!        0:vdd!      
 model               0:nmos      0:nmos      0:pmos        0:pmos      
 w eff             166.0000n   166.0000n   254.0000n     254.0000n     
 l eff              29.0000n    29.0000n    29.0000n      29.0000n     
 rd eff              0.          0.          0.            0.          
 rs eff              0.          0.          0.            0.          
 cdsat              15.1073a    15.1073a    22.3447a      22.3447a     
 cssat              15.1073a    15.1073a    22.3447a      22.3447a     
 capbd             223.4243a   223.4243a   313.1804a     313.1804a     
 capbs             188.2947a   188.2947a   260.4860a     260.4860a     
 temp               25.0000     25.0000     25.0000       25.0000      
 aic                                                                   
 nf                  1.0000      1.0000      1.0000        1.0000      
 min                 0.          0.          0.            0.          
 rbdb               15.0000     15.0000     15.0000       15.0000      
 rbsb               15.0000     15.0000     15.0000       15.0000      
 rbpb                5.0000      5.0000      5.0000        5.0000      
 rbps               15.0000     15.0000     15.0000       15.0000      
 rbpd               15.0000     15.0000     15.0000       15.0000      
 trnqsmod            0.          0.          0.            0.          
 acnqsmod            0.          0.          0.            0.          
 rbodymod            1.0000      1.0000      1.0000        1.0000      
 rgatemod            1.0000      1.0000      1.0000        1.0000      
 geomod              0.          0.          0.            0.          
 rgeomod             0.          0.          0.            0.          
 delvto              0.          0.          0.            0.          
 mulu0               1.0000      1.0000      1.0000        1.0000      
 delk1               0.          0.          0.            0.          
 delnfct             0.          0.          0.            0.          
 deltox              0.          0.          0.            0.          
 sa                  0.          0.          0.            0.          
 sb                  0.          0.          0.            0.          
 sd                  0.          0.          0.            0.          
 saeff               0.          0.          0.            0.          
 sbeff               0.          0.          0.            0.          
  
  
                                                                     
 element name       18:m3       18:m1          19:m1       19:m2     
 drain              18:mid_a     0:b3sel_b6     1:net020    1:net020 
 gate                0:block3    1:sel_b_inv    1:net025    1:net025 
 source              0:0        18:mid_a        0:vdd!      0:0      
 bulk                0:0         0:0            0:vdd!      0:0      
 model               0:nmos      0:nmos         0:pmos      0:nmos   
 w eff             166.0000n   166.0000n        1.0460u   342.0000n  
 l eff              29.0000n    29.0000n       29.0000n    29.0000n  
 rd eff              0.          0.             0.          0.       
 rs eff              0.          0.             0.          0.       
 cdsat              15.1073a    15.1073a       87.4809a    29.5820a  
 cssat              15.1073a    15.1073a       87.4809a    29.5820a  
 capbd             223.4243a   223.4243a        1.1210f   402.9365a  
 capbs             188.2947a   188.2947a      910.2079a   332.6773a  
 temp               25.0000     25.0000        25.0000     25.0000   
 aic                                                                 
 nf                  1.0000      1.0000         1.0000      1.0000   
 min                 0.          0.             0.          0.       
 rbdb               15.0000     15.0000        15.0000     15.0000   
 rbsb               15.0000     15.0000        15.0000     15.0000   
 rbpb                5.0000      5.0000         5.0000      5.0000   
 rbps               15.0000     15.0000        15.0000     15.0000   
 rbpd               15.0000     15.0000        15.0000     15.0000   
 trnqsmod            0.          0.             0.          0.       
 acnqsmod            0.          0.             0.          0.       
 rbodymod            1.0000      1.0000         1.0000      1.0000   
 rgatemod            1.0000      1.0000         1.0000      1.0000   
 geomod              0.          0.             0.          0.       
 rgeomod             0.          0.             0.          0.       
 delvto              0.          0.             0.          0.       
 mulu0               1.0000      1.0000         1.0000      1.0000   
 delk1               0.          0.             0.          0.       
 delnfct             0.          0.             0.          0.       
 deltox              0.          0.             0.          0.       
 sa                  0.          0.             0.          0.       
 sb                  0.          0.             0.          0.       
 sd                  0.          0.             0.          0.       
 saeff               0.          0.             0.          0.       
[...]
  vgs         11.4731u    653.8913m    -46.0989m   -699.9885m      0.     
  vds         46.1087m      1.7536u    653.8869m     -2.6866u     -2.6866u
  vbs          0.         -46.1087m    -46.1104m      0.           0.     
  vth        367.4499m    381.6091m    337.0015m   -310.7632m   -310.7632m
  vdsat       40.2177m    179.9529m     40.0363m   -322.9392m    -46.2174m
  vod       -367.4385m    272.2822m   -383.1004m   -389.2254m    310.7632m
  beta         2.8168m      2.5400m      2.9257m    361.2351u    367.4758u
  gam eff    441.0000m    441.0000m    441.0000m    394.0000m    394.0000m
  gm          16.0830n      1.0263n     13.4469n    631.9107p    779.8061f
  gds          5.2493n    327.6114u      1.0098n    119.6390u     11.0517n
  gmb          4.7609n    334.8075p      3.8885n    190.4105p    187.1277f
  cdtot      192.2000a    263.3918a    157.6982a    364.4947a    258.8319a
  cgtot       95.6793a    166.1092a     82.2458a    246.6036a    136.6818a
  cstot      174.4332a    194.0986a    170.5249a    259.3998a    228.0318a
  cbtot      306.0700a    303.8648a    281.0934a    393.5831a    393.7701a
  cgs         40.0139a     92.3092a     38.1086a    138.8756a     57.4452a
  cgd         38.1078a     72.8408a     26.5795a    106.7177a     57.4431a



 subckt     xdecoder.x   xdecoder.x   xdecoder.x   xdecoder.x   xdecoder.x
 element  147:m0       148:m10      148:m9       148:m1       148:m7      
 model      0:pmos       0:nmos       0:nmos       0:nmos       0:pmos    
 region         Linear       Cutoff       Cutoff       Cutoff       Linear
  id        -321.4214p    345.1002p    345.1290p    345.1907p   -155.7108p
  ibs       -1.222e-27    1.559e-26    -16.6251f    -57.7257f   -1.222e-27
  ibd          2.6885a    -16.6251f    -57.7257f   -700.0122f      1.3024a
  vgs       -699.9885m     11.4731u    -16.6187m    -57.7022m   -699.9885m
  vds         -2.6866u     16.6187m     41.0950m    642.2850m     -1.3015u
  vbs          0.           0.         -16.6187m    -57.7137m      0.     
  vth       -310.7632m    369.4619m    371.7927m    340.5230m   -310.7633m
  vdsat     -322.9392m     40.2310m     40.2552m     40.0648m   -322.9392m
  vod       -389.2254m   -369.4504m   -388.4114m   -398.2253m   -389.2252m
  beta       361.2351u      2.8097m      2.8014m      2.9130m    361.2351u
  gam eff    394.0000m    441.0000m    441.0000m    441.0000m    394.0000m
  gm         631.9107p      8.8285n      8.8806n      8.9577n    306.1249p
  gds        119.6390u     15.8262n      3.6249n    672.7761p    119.6394u
  gmb        190.4105p      2.6251n      2.6331n      2.5937n     92.2432p
  cdtot      364.4947a    194.8975a    191.1537a    157.6981a    364.4955a
  cgtot      246.6036a     96.9042a     94.5167a     81.7644a    246.6037a
  cstot      259.3998a    174.4332a    173.0165a    169.5579a    259.3994a
  cbtot      393.5831a    307.5426a    304.7698a    280.6078a    393.5832a
  cgs        138.8756a     40.0139a     39.3330a     37.6271a    138.8753a
  cgd        106.7177a     39.3327a     37.6259a     26.5795a    106.7180a



 subckt     xdecoder.x   xdecoder.x   xdecoder.x   xdecoder.x   xdecoder.x
 element  148:m6       148:m0       149:m10      149:m9       149:m1      
 model      0:pmos       0:pmos       0:nmos       0:nmos       0:nmos    
 region         Linear       Linear       Cutoff       Linear       Cutoff
  id        -155.7143p   -155.7108p    628.8219p    574.4993p    520.1765p
  ibs       -1.222e-27   -1.222e-27    4.326e-26    -46.1199f    -46.1216f
  ibd          1.3024a      1.3024a    -46.1199f    -46.1216f   -700.0108f
  vgs       -700.0000m   -699.9885m     11.4731u    653.8913m    -46.0989m
  vds         -1.3015u     -1.3015u     46.1087m      1.7536u    653.8869m
  vbs          0.           0.           0.         -46.1087m    -46.1104m
  vth       -310.7633m   -310.7633m    367.4499m    381.6091m    337.0015m
  vdsat     -322.9464m   -322.9392m     40.2177m    179.9529m     40.0363m
  vod       -389.2367m   -389.2252m   -367.4385m    272.2822m   -383.1004m
  beta       361.2334u    361.2351u      2.8168m      2.5400m      2.9257m
  gam eff    394.0000m    394.0000m    441.0000m    441.0000m    441.0000m
  gm         306.1193p    306.1249p     16.0830n      1.0263n     13.4469n
  gds        119.6421u    119.6394u      5.2493n    327.6114u      1.0098n
  gmb         92.2426p     92.2432p      4.7609n    334.8075p      3.8885n
  cdtot      364.4963a    364.4955a    192.2000a    263.3918a    157.6982a
  cgtot      246.6042a    246.6037a     95.6793a    166.1092a     82.2458a
  cstot      259.3993a    259.3994a    174.4332a    194.0986a    170.5249a
  cbtot      393.5832a    393.5832a    306.0700a    303.8648a    281.0934a
  cgs        138.8755a    138.8753a     40.0139a     92.3092a     38.1086a
  cgd        106.7184a    106.7180a     38.1078a     72.8408a     26.5795a



 subckt     xdecoder.x   xdecoder.x   xdecoder.x   xdecoder.x   xdecoder.x
 element  149:m7       149:m6       149:m0       150:m10      150:m9      
 model      0:pmos       0:pmos       0:pmos       0:nmos       0:nmos    
 region         Linear       Cutoff       Linear       Cutoff       Cutoff
  id        -321.4214p    -29.6921f   -321.4214p    345.1002p    345.1290p
  ibs       -1.222e-27    1.111e-28   -1.222e-27    1.559e-26    -16.6251f
  ibd          2.6885a      2.6885a      2.6885a    -16.6251f    -57.7257f
  vgs       -699.9885m      0.        -699.9885m     11.4731u    -16.6187m
  vds         -2.6866u     -2.6866u     -2.6866u     16.6187m     41.0950m
  vbs          0.           0.           0.           0.         -16.6187m
  vth       -310.7632m   -310.7632m   -310.7632m    369.4619m    371.7927m
  vdsat     -322.9392m    -46.2174m   -322.9392m     40.2310m     40.2552m
  vod       -389.2254m    310.7632m   -389.2254m   -369.4504m   -388.4114m
  beta       361.2351u    367.4758u    361.2351u      2.8097m      2.8014m
  gam eff    394.0000m    394.0000m    394.0000m    441.0000m    441.0000m
  gm         631.9107p    779.8061f    631.9107p      8.8285n      8.8806n
  gds        119.6390u     11.0517n    119.6390u     15.8262n      3.6249n
  gmb        190.4105p    187.1277f    190.4105p      2.6251n      2.6331n
  cdtot      364.4947a    258.8319a    364.4947a    194.8975a    191.1537a
  cgtot      246.6036a    136.6818a    246.6036a     96.9042a     94.5167a
  cstot      259.3998a    228.0318a    259.3998a    174.4332a    173.0165a
  cbtot      393.5831a    393.7701a    393.5831a    307.5426a    304.7698a
  cgs        138.8756a     57.4452a    138.8756a     40.0139a     39.3330a
  cgd        106.7177a     57.4431a    106.7177a     39.3327a     37.6259a



 subckt     xdecoder.x   xdecoder.x   xdecoder.x   xdecoder.x   xclk_gen.x
 element  150:m1       150:m7       150:m6       150:m0       154:m_0     
 model      0:nmos       0:pmos       0:pmos       0:pmos       0:nmos    
 region         Cutoff       Linear       Linear       Linear       Cutoff
  id         345.1907p   -155.7108p   -155.7143p   -155.7108p      4.3206n
  ibs        -57.7257f   -1.222e-27   -1.222e-27   -1.222e-27    6.568e-25
  ibd       -700.0122f      1.3024a      1.3024a      1.3024a   -700.0085f
  vgs        -57.7022m   -699.9885m   -700.0000m   -699.9885m      0.     
  vds        642.2850m     -1.3015u     -1.3015u     -1.3015u    699.9875m
  vbs        -57.7137m      0.           0.           0.           0.     
  vth        340.5230m   -310.7633m   -310.7633m   -310.7633m    322.8420m
  vdsat       40.0648m   -322.9392m   -322.9464m   -322.9392m     39.9532m
  vod       -398.2253m   -389.2252m   -389.2367m   -389.2252m   -322.8420m
  beta         2.9130m    361.2351u    361.2334u    361.2351u      4.9420m
  gam eff    441.0000m    394.0000m    394.0000m    394.0000m    441.0000m
  gm           8.9577n    306.1249p    306.1193p    306.1249p    109.4825n
  gds        672.7761p    119.6394u    119.6421u    119.6394u      8.2225n
  gmb          2.5937n     92.2432p     92.2426p     92.2432p     31.4704n
  cdtot      157.6981a    364.4955a    364.4963a    364.4955a    231.7528a
  cgtot       81.7644a    246.6037a    246.6042a    246.6037a    139.2019a
  cstot      169.5579a    259.3994a    259.3993a    259.3994a    255.0948a
  cbtot      280.6078a    393.5832a    393.5832a    393.5832a    404.9591a
  cgs         37.6271a    138.8753a    138.8755a    138.8753a     66.4247a
  cgd         26.5795a    106.7180a    106.7184a    106.7180a     44.1218a



 subckt     xclk_gen.x   xclk_gen.x   xclk_gen.x   xclk_gen.x   xclk_gen.x
 element  154:m_1      155:m_0      155:m_1      156:m_0      156:m_1     
 model      0:pmos       0:nmos       0:pmos       0:nmos       0:pmos    
 region         Linear       Linear       Cutoff       Cutoff       Linear
  id          -5.3360n     26.8934n    -27.5003n     69.1500n    -85.3960n
  ibs       -4.340e-27    1.235e-26   -2.631e-24    1.051e-23   -6.944e-26
  ibd         12.5037a    -45.9297a      2.8002p    -11.2001p    200.1111a
  vgs       -700.0000m    699.9875m    -12.4742u     11.4731u   -699.9885m
  vds        -12.4742u     11.4731u   -699.9885m    699.9875m    -12.4774u
  vbs          0.           0.           0.           0.           0.     
  vth       -310.7623m    370.5949m   -251.2176m    322.8420m   -310.7623m
  vdsat     -323.1697m    206.2743m    -46.1542m     39.9532m   -323.1624m
  vod       -389.2377m    329.3926m    251.2051m   -322.8306m   -389.2262m
  beta         1.2994m     16.6812m      5.7846m     79.0721m     20.7911m
  gam eff    394.0000m    441.0000m    394.0000m    441.0000m    394.0000m
  gm          10.4284n     34.2589n    707.3202n      1.7522u    166.9007n
  gds        427.7557u      2.3440m     67.7552n    131.5983n      6.8439m
  gmb          3.1421n     12.2890n    161.3779n    503.6685n     50.2863n
  cdtot        1.1703f      1.6473f      2.5043f      3.7080f     18.7252f
  cgtot      885.1605a      1.1119f      1.6808f      2.2272f     14.1625f
  cstot      797.5023a      1.1600f      2.7387f      4.0815f     12.7600f
  cbtot        1.1374f      1.7662f      4.1741f      6.4793f     18.1988f
  cgs        499.5751a    615.7214a    826.7441a      1.0628f      7.9932f
  cgd        383.8795a    494.7642a    548.1969a    705.9508a      6.1421f



 subckt     xclk_gen.x   xclk_gen.x   xa0_gen.xg   xa0_gen.xg   xa0_gen.xg
 element  157:m_0      157:m_1      158:m_0      158:m_1      159:m_0     
 model      0:nmos       0:pmos       0:nmos       0:pmos       0:nmos    
 region         Linear       Cutoff       Cutoff       Linear       Linear
  id         448.6321n   -440.0050n      4.3206n     -5.3360n     26.8934n
  ibs        1.976e-25   -4.210e-23    6.568e-25   -4.340e-27    1.235e-26
  ibd       -766.1937a     44.8032p   -700.0085f     12.5037a    -45.9297a
  vgs        699.9875m    -12.4774u      0.        -700.0000m    699.9875m
  vds         11.9621u   -699.9880m    699.9875m    -12.4742u     11.4731u
  vbs          0.           0.           0.           0.           0.     
  vth        370.5949m   -251.2176m    322.8420m   -310.7623m    370.5949m
  vdsat      206.2743m    -46.1542m     39.9532m   -323.1697m    206.2743m
  vod        329.3927m    251.2051m   -322.8420m   -389.2377m    329.3926m
  beta       266.8997m     92.5543m      4.9420m      1.2994m     16.6812m
  gam eff    441.0000m    394.0000m    441.0000m    394.0000m    441.0000m
  gm         571.5023n     11.3171u    109.4825n     10.4284n     34.2589n
  gds         37.5037m      1.0841u      8.2225n    427.7557u      2.3440m
  gmb        205.0027n      2.5820u     31.4704n      3.1421n     12.2890n
  cdtot       26.3573f     40.0690f    231.7528a      1.1703f      1.6473f
  cgtot       17.7902f     26.8925f    139.2019a    885.1605a      1.1119f
  cstot       18.5601f     43.8199f    255.0948a    797.5023a      1.1600f
  cbtot       28.2587f     66.7850f    404.9591a      1.1374f      1.7662f
  cgs          9.8516f     13.2279f     66.4247a    499.5751a    615.7214a
  cgd          7.9162f      8.7712f     44.1218a    383.8795a    494.7642a



 subckt     xa0_gen.xg   xa0_gen.xg   xa0_gen.xg   xa0_gen.xg   xa0_gen.xg
 element  159:m_1      160:m_0      160:m_1      161:m_0      161:m_1     
 model      0:pmos       0:nmos       0:pmos       0:nmos       0:pmos    
 region         Cutoff       Cutoff       Linear       Linear       Cutoff
  id         -27.5003n     69.1500n    -85.3960n    448.6321n   -440.0050n
  ibs       -2.631e-24    1.051e-23   -6.944e-26    1.976e-25   -4.210e-23
  ibd          2.8002p    -11.2001p    200.1111a   -766.1937a     44.8032p
  vgs        -12.4742u     11.4731u   -699.9885m    699.9875m    -12.4774u
  vds       -699.9885m    699.9875m    -12.4774u     11.9621u   -699.9880m
  vbs          0.           0.           0.           0.           0.     
  vth       -251.2176m    322.8420m   -310.7623m    370.5949m   -251.2176m
  vdsat      -46.1542m     39.9532m   -323.1624m    206.2743m    -46.1542m
  vod        251.2051m   -322.8306m   -389.2262m    329.3927m    251.2051m
  beta         5.7846m     79.0721m     20.7911m    266.8997m     92.5543m
  gam eff    394.0000m    441.0000m    394.0000m    441.0000m    394.0000m
  gm         707.3202n      1.7522u    166.9007n    571.5023n     11.3171u
  gds         67.7552n    131.5983n      6.8439m     37.5037m      1.0841u
  gmb        161.3779n    503.6685n     50.2863n    205.0027n      2.5820u
  cdtot        2.5043f      3.7080f     18.7252f     26.3573f     40.0690f
  cgtot        1.6808f      2.2272f     14.1625f     17.7902f     26.8925f
  cstot        2.7387f      4.0815f     12.7600f     18.5601f     43.8199f
  cbtot        4.1741f      6.4793f     18.1988f     28.2587f     66.7850f
  cgs        826.7441a      1.0628f      7.9932f      9.8516f     13.2279f
  cgd        548.1969a    705.9508a      6.1421f      7.9162f      8.7712f



 subckt     xa255_gen.   xa255_gen.   xa255_gen.   xa255_gen.   xa255_gen.
 element  162:m_0      162:m_1      163:m_0      163:m_1      164:m_0     
 model      0:nmos       0:pmos       0:nmos       0:pmos       0:nmos    
 region         Cutoff       Linear       Linear       Cutoff       Cutoff
  id           4.3206n     -5.3360n     26.8934n    -27.5003n     69.1500n
  ibs        6.568e-25   -4.340e-27    1.235e-26   -2.631e-24    1.051e-23
  ibd       -700.0085f     12.5037a    -45.9297a      2.8002p    -11.2001p
  vgs          0.        -700.0000m    699.9875m    -12.4742u     11.4731u
  vds        699.9875m    -12.4742u     11.4731u   -699.9885m    699.9875m
  vbs          0.           0.           0.           0.           0.     
  vth        322.8420m   -310.7623m    370.5949m   -251.2176m    322.8420m
  vdsat       39.9532m   -323.1697m    206.2743m    -46.1542m     39.9532m
  vod       -322.8420m   -389.2377m    329.3926m    251.2051m   -322.8306m
  beta         4.9420m      1.2994m     16.6812m      5.7846m     79.0721m
  gam eff    441.0000m    394.0000m    441.0000m    394.0000m    441.0000m
  gm         109.4825n     10.4284n     34.2589n    707.3202n      1.7522u
  gds          8.2225n    427.7557u      2.3440m     67.7552n    131.5983n
  gmb         31.4704n      3.1421n     12.2890n    161.3779n    503.6685n
  cdtot      231.7528a      1.1703f      1.6473f      2.5043f      3.7080f
  cgtot      139.2019a    885.1605a      1.1119f      1.6808f      2.2272f
  cstot      255.0948a    797.5023a      1.1600f      2.7387f      4.0815f
  cbtot      404.9591a      1.1374f      1.7662f      4.1741f      6.4793f
  cgs         66.4247a    499.5751a    615.7214a    826.7441a      1.0628f
  cgd         44.1218a    383.8795a    494.7642a    548.1969a    705.9508a



 subckt     xa255_gen.   xa255_gen.   xa255_gen.
 element  164:m_1      165:m_0      165:m_1     
 model      0:pmos       0:nmos       0:pmos    
 region         Linear       Linear       Cutoff
  id         -85.3960n    448.6321n   -440.0050n
  ibs       -6.944e-26    1.976e-25   -4.210e-23
  ibd        200.1111a   -766.1937a     44.8032p
  vgs       -699.9885m    699.9875m    -12.4774u
  vds        -12.4774u     11.9621u   -699.9880m
  vbs          0.           0.           0.     
  vth       -310.7623m    370.5949m   -251.2176m
  vdsat     -323.1624m    206.2743m    -46.1542m
  vod       -389.2262m    329.3927m    251.2051m
  beta        20.7911m    266.8997m     92.5543m
  gam eff    394.0000m    441.0000m    394.0000m
  gm         166.9007n    571.5023n     11.3171u
  gds          6.8439m     37.5037m      1.0841u
  gmb         50.2863n    205.0027n      2.5820u
  cdtot       18.7252f     26.3573f     40.0690f
  cgtot       14.1625f     17.7902f     26.8925f
  cstot       12.7600f     18.5601f     43.8199f
  cbtot       18.1988f     28.2587f     66.7850f
  cgs          7.9932f      9.8516f     13.2279f
  cgd          6.1421f      7.9162f      8.7712f



 ******  
 part 2

  ******  transient analysis tnom=  25.000 temp=  27.000 *****
 max_bit_b=  53.0282m    at=   1.4367n
             from=   0.         to=   5.0000n
  **warning** (part2_decoder_Blocked_Slowed_Switched_WR_Voltages.hsp:110) .MEASURE  wl0_rise never reached the trigger value, Measurement failed!
  **warning** (part2_decoder_Blocked_Slowed_Switched_WR_Voltages.hsp:110) .MEASURE  wl0_rise never reached the target value, Measurement failed!
  **warning** (part2_decoder_Blocked_Slowed_Switched_WR_Voltages.hsp:110) Target event is undefined. Please specify a valid event. Measure failed.
 wl0_width= 490.9877p  targ=   1.5271n   trig=   1.0362n
 bl0_split=  22.3538m    at=   1.5000n
             from= 500.0000p    to=   1.5000n
 bl1_split=-139.2429u    at=   1.2919n
             from= 500.0000p    to=   1.5000n
 clk-out0= 767.6353p  targ=   1.3552n   trig= 587.5563p
 precharge= failed       targ= not found    trig=   1.8180n
 out0-width= 387.2549p  targ=   1.7424n   trig=   1.3552n
 idsat_avg=-556.1864p  from=   2.0000n     to=   3.0000n
 write_core_power=-700.0000n  from=   2.0000n     to=   3.0000n
 vcell_power=-722.2726u  from=   2.0000n     to=   3.0000n
 mem_core_power=-722.9726u

          ***** job concluded
1****** HSPICE -- F-2011.09-SP2 32-BIT (Feb 27 2012) linux ******               
 ******  
 part 2

  ******  job statistics summary tnom=  25.000 temp=  27.000 *****
  
  
 ******  Machine Information  ******
 CPU:
 model name	: Intel(R) Core(TM)2 Duo CPU     E8500  @ 3.16GHz
 cpu MHz	: 3158.865
  
 OS:
 Linux version 3.2.0-30-generic (buildd@batsu) (gcc version 4.6.3 (Ubuntu/Linaro
  4.6.3-1ubuntu5) ) #48-Ubuntu SMP Fri Aug 24 16:52:48 UTC 2012


  ******  HSPICE Threads Information  ******

  Command Line Threads Count :     1
  Available CPU Count        :     2
  Actual Threads Count       :     1


  ******  Circuit Statistics  ******
  # nodes       =    2200 # elements   =     583
  # resistors   =       1 # capacitors =      54 # inductors   =       0
  # mutual_inds =       0 # vccs       =       0 # vcvs        =       3
  # cccs        =       6 # ccvs       =       0 # volt_srcs   =      31
  # curr_srcs   =       0 # diodes     =       0 # bjts        =       0
  # jfets       =       0 # mosfets    =     488 # U elements  =       0
  # T elements  =       0 # W elements =       0 # B elements  =       0
  # S elements  =       0 # P elements =       0 # va device   =       0
  # vector_srcs =       0


  ******  Runtime Statistics (seconds)  ******

  analysis           time    # points   tot. iter  conv.iter
  op point           2.48           1         839
  transient          9.60       16667       13789        1551 rev=       196
  readin             0.02
  errchk             0.08
  setup              0.02
  output             0.00


           peak memory used         93.66 megabytes
           total cpu time           12.20 seconds
           total elapsed time       26.70 seconds
           job started at     20:55:24 03/14/2013
           job ended   at     20:55:51 03/14/2013


 lic: Release hspice token(s) 
