$DATA1 SOURCE='HSPICE' VERSION='F-2011.09-SP2 32-BIT'
.TITLE 'part 2'
 supply_power     temper           alter#            
 -4.712e-05         27.0000        1                 
