Using: /usr/class/ee/synopsys/hspice/F-2011.09-SP2/hspice/linux/hspice part2_decoder_Blocked_Slowed_Switched_WR_Voltages.hsp
 ****** HSPICE -- F-2011.09-SP2 32-BIT (Feb 27 2012) linux ******               
  Copyright (C) 2011 Synopsys, Inc. All Rights Reserved.                        
  Unpublished-rights reserved under US copyright laws.
  This program is protected by law and is subject to the
  terms and conditions of the license agreement from Synopsys.
  Use of this program is your acceptance to be bound by the
  license agreement. HSPICE is the trademark of Synopsys, Inc.
  Input File: part2_decoder_Blocked_Slowed_Switched_WR_Voltages.hsp             
  Command line options: part2_decoder_Blocked_Slowed_Switched_WR_Voltages.hsp
 lic:  
 lic: FLEXlm: v10.8 
 lic: USER:   veharvey             HOSTNAME: myth10 
 lic: HOSTID: 001ec92f9f5a         PID:      20546 
 lic: Using FLEXlm license file: 
 lic: 27000@cadlic0.stanford.edu 
 lic: Checkout 1 hspice 
 lic: License/Maintenance for hspice will expire on 16-nov-2013/2013.03 
 lic: 2(in_use)/100(total) FLOATING license(s) on SERVER cadlic0.stanford.edu 
 lic:   
 Init: read install configuration file: /usr/class/ee/synopsys/hspice/F-2011.09-SP2/hspice/meta.cfg

 **warning**  runlvl smaller than 5, reset to 5  when accurate turned on
 scientific notation:
 a=10**-18  f=10**-15  p=10**-12  n=10**-9  u=10**-6
 m=10**-3   k=10**3    x=10**6    g=10**9 

 **warning**  runlvl smaller than 5, reset to 5  when accurate turned on
1****** HSPICE -- F-2011.09-SP2 32-BIT (Feb 27 2012) linux ******               
 ******  
 part 2

  ******  circuit name directory
 circuit number to circuit name directory
   number circuitname                     definition         multiplier
        0 main circuit
        1 xsense63_in.                    blocked_sense_inputs
                                                                 1.00 
        2 xsense0_in.                     blocked_sense_inputs
                                                                 1.00 
        3 xblock_decoder.                 block_decoder      1.00 
        4 xarray.                         array_blocked_wordline_4
                                                                 1.00 
        5 xdecoder.                       decoder            1.00 
        6 xsense63.                       sense              1.00 
        7 xsense0.                        sense              1.00 
        8 xvwl_mux.                       vwl_mux_array      1.00 
        9 xclk_gen.                       clk_gen            1.00 
       10 xa0_gen.                        a0_gen             1.00 
       11 xa255_gen.                      a255_gen           1.00 
       12 xsense63_in.xu5.                inv_pcell_0        1.00 
       13 xsense63_in.xu0.                inv_pcell_0        1.00 
       14 xsense63_in.xu3.                nand_pcell_1       1.00 
       15 xsense63_in.xu2.                nand_pcell_1       1.00 
       16 xsense0_in.xu5.                 inv_pcell_0        1.00 
       17 xsense0_in.xu0.                 inv_pcell_0        1.00 
       18 xsense0_in.xu3.                 nand_pcell_1       1.00 
       19 xsense0_in.xu2.                 nand_pcell_1       1.00 
       20 xblock_decoder.xu13.            nand_pcell_3       1.00 
       21 xblock_decoder.xu12.            nand_pcell_3       1.00 
       22 xblock_decoder.xu11.            nand_pcell_3       1.00 
       23 xblock_decoder.xu10.            nand_pcell_3       1.00 
       24 xblock_decoder.xu8.             nand_pcell_3       1.00 
       25 xblock_decoder.xu3.             nand_pcell_3       1.00 
       26 xblock_decoder.xu4.             nand_pcell_3       1.00 
       27 xblock_decoder.xu7.             nand_pcell_3       1.00 
       28 xarray.xmctr.                   mc                 1.00 
       29 xarray.xmcmr.                   mc               254.00 
       30 xarray.xmcbr.                   mc                 1.00 
       31 xarray.xmctb3dum.               mc                63.00 
       32 xarray.xmcmb3dum.               mc                16.00k
       33 xarray.xmcbb3dum.               mc                63.00 
       34 xarray.xmcbb2dum.               mc                64.00 
       35 xarray.xmctb2dum.               mc                64.00 
       36 xarray.xmcmb2dum.               mc                16.26k
       37 xarray.xmctb1dum.               mc                64.00 
       38 xarray.xmcbb0dum.               mc                63.00 
       39 xarray.xmcbl.                   mc                 1.00 
       40 xarray.xmcml.                   mc               254.00 
       41 xarray.xmcmb0dum.               mc                16.00k
       42 xarray.xmcmb1dum.               mc                16.26k
       43 xarray.xmcbb1dum.               mc                64.00 
       44 xarray.xmctb0dum.               mc                63.00 
       45 xarray.xmctl.                   mc                 1.00 
       46 xarray.xwriter.                 write              1.00 
       47 xarray.xwriteb3dum.             write             63.00 
       48 xarray.xwriteb1dum.             write             64.00 
       49 xarray.xwriteb2dum.             write             64.00 
       50 xarray.xwriteb0dum.             write             63.00 
       51 xarray.xwritel.                 write              1.00 
       52 xdecoder.xpredecoder416.        predecode_416      1.00 
       53 xdecoder.xdecoder_stage.        decode_stage       1.00 
       54 xdecoder.xpredecoder24.         predecode_24       1.00 
       55 xsense63.xu1.                   inv_pcell_11       1.00 
       56 xsense63.xu0.                   inv_pcell_11       1.00 
       57 xsense63.xu3.                   inv_pcell_12       1.00 
       58 xsense63.xu2.                   inv_pcell_12       1.00 
       59 xsense0.xu1.                    inv_pcell_11       1.00 
       60 xsense0.xu0.                    inv_pcell_11       1.00 
       61 xsense0.xu3.                    inv_pcell_12       1.00 
       62 xsense0.xu2.                    inv_pcell_12       1.00 
       63 xvwl_mux.xi7.                   read_write_vwl_mux
                                                                 1.00 
       64 xvwl_mux.xi6.                   read_write_vwl_mux
                                                                 1.00 
       65 xvwl_mux.xi5.                   read_write_vwl_mux
                                                                 1.00 
       66 xvwl_mux.xi4.                   read_write_vwl_mux
                                                                 1.00 
       67 xvwl_mux.xi3.                   read_write_vwl_mux
                                                                 1.00 
       68 xvwl_mux.xi2.                   read_write_vwl_mux
                                                                 1.00 
       69 xvwl_mux.xi1.                   read_write_vwl_mux
                                                                 1.00 
       70 xvwl_mux.xi0.                   read_write_vwl_mux
                                                                 1.00 
       71 xvwl_mux.xu0.                   inv_pcell_012      1.00 
       72 xclk_gen.xgen.                  signal_gen         1.00 
       73 xa0_gen.xgen.                   signal_gen         1.00 
       74 xa255_gen.xgen.                 signal_gen         1.00 
       75 xarray.xwriter.xu0.             inv_pcell_01       1.00 
       76 xarray.xwriter.xu2.             inv_pcell_23       1.00 
       77 xarray.xwriter.xu1.             inv_pcell_23       1.00 
       78 xarray.xwriteb3dum.xu0.         inv_pcell_01      63.00 
       79 xarray.xwriteb3dum.xu2.         inv_pcell_23      63.00 
       80 xarray.xwriteb3dum.xu1.         inv_pcell_23      63.00 
       81 xarray.xwriteb1dum.xu0.         inv_pcell_01      64.00 
       82 xarray.xwriteb1dum.xu2.         inv_pcell_23      64.00 
       83 xarray.xwriteb1dum.xu1.         inv_pcell_23      64.00 
       84 xarray.xwriteb2dum.xu0.         inv_pcell_01      64.00 
       85 xarray.xwriteb2dum.xu2.         inv_pcell_23      64.00 
       86 xarray.xwriteb2dum.xu1.         inv_pcell_23      64.00 
       87 xarray.xwriteb0dum.xu0.         inv_pcell_01      63.00 
       88 xarray.xwriteb0dum.xu2.         inv_pcell_23      63.00 
       89 xarray.xwriteb0dum.xu1.         inv_pcell_23      63.00 
       90 xarray.xwritel.xu0.             inv_pcell_01       1.00 
       91 xarray.xwritel.xu2.             inv_pcell_23       1.00 
       92 xarray.xwritel.xu1.             inv_pcell_23       1.00 
       93 xdecoder.xpredecoder416.xi16.   nand_pcell_4       1.00 
       94 xdecoder.xpredecoder416.xi15.   nand_pcell_4       1.00 
       95 xdecoder.xpredecoder416.xi17.   nand_pcell_4       1.00 
       96 xdecoder.xpredecoder416.xi18.   nand_pcell_4       1.00 
       97 xdecoder.xpredecoder416.xu15.   inv_pcell_5        1.00 
       98 xdecoder.xpredecoder416.xu14.   inv_pcell_5        1.00 
       99 xdecoder.xpredecoder416.xu13.   inv_pcell_5        1.00 
      100 xdecoder.xpredecoder416.xu12.   inv_pcell_5        1.00 
      101 xdecoder.xpredecoder416.xu11.   inv_pcell_6        1.00 
      102 xdecoder.xpredecoder416.xu10.   inv_pcell_6        1.00 
      103 xdecoder.xpredecoder416.xu9.    inv_pcell_6        1.00 
      104 xdecoder.xpredecoder416.xu8.    inv_pcell_6        1.00 
      105 xdecoder.xpredecoder416.xu0.    inv_pcell_7        1.00 
      106 xdecoder.xpredecoder416.xu1.    inv_pcell_7        1.00 
      107 xdecoder.xpredecoder416.xu2.    inv_pcell_7        1.00 
      108 xdecoder.xpredecoder416.xu3.    inv_pcell_7        1.00 
      109 xdecoder.xdecoder_stage.xu3.    nand_pcell_8       1.00 
      110 xdecoder.xdecoder_stage.xu2.    nand_pcell_8       1.00 
      111 xdecoder.xdecoder_stage.xu1.    nand_pcell_8       1.00 
      112 xdecoder.xdecoder_stage.xu0.    nand_pcell_8       1.00 
      113 xdecoder.xdecoder_stage.xu8.    inv_pcell_9        1.00 
      114 xdecoder.xdecoder_stage.xu7.    inv_pcell_9        1.00 
      115 xdecoder.xdecoder_stage.xu6.    inv_pcell_9        1.00 
      116 xdecoder.xdecoder_stage.xu5.    inv_pcell_9        1.00 
      117 xdecoder.xpredecoder24.xu3.     inv_pcell_10       1.00 
      118 xdecoder.xpredecoder24.xu2.     inv_pcell_10       1.00 
      119 xdecoder.xpredecoder24.xu1.     inv_pcell_10       1.00 
      120 xdecoder.xpredecoder24.xu0.     inv_pcell_10       1.00 
      121 xdecoder.xpredecoder24.xi36.    nand3              1.00 
      122 xdecoder.xpredecoder24.xi37.    nand3              1.00 
      123 xdecoder.xpredecoder24.xi38.    nand3              1.00 
      124 xdecoder.xpredecoder24.xi39.    nand3              1.00 
      125 xclk_gen.xgen.x_0.              inv_chain_stimulus
                                                                 1.00 
      126 xa0_gen.xgen.x_0.               inv_chain_stimulus
                                                                 1.00 
      127 xa255_gen.xgen.x_0.             inv_chain_stimulus
                                                                 1.00 
      128 xclk_gen.xgen.x_0.x_0.          inv_stimulus       1.00 
      129 xclk_gen.xgen.x_0.x_1.          inv_stimulus       4.00 
      130 xclk_gen.xgen.x_0.x_2.          inv_stimulus      16.00 
      131 xclk_gen.xgen.x_0.x_3.          inv_stimulus      64.00 
      132 xa0_gen.xgen.x_0.x_0.           inv_stimulus       1.00 
      133 xa0_gen.xgen.x_0.x_1.           inv_stimulus       4.00 
      134 xa0_gen.xgen.x_0.x_2.           inv_stimulus      16.00 
      135 xa0_gen.xgen.x_0.x_3.           inv_stimulus      64.00 
      136 xa255_gen.xgen.x_0.x_0.         inv_stimulus       1.00 
      137 xa255_gen.xgen.x_0.x_1.         inv_stimulus       4.00 
      138 xa255_gen.xgen.x_0.x_2.         inv_stimulus      16.00 
      139 xa255_gen.xgen.x_0.x_3.         inv_stimulus      64.00 


 circuit parameter definitions
  parameter          =  value 

     0:supply                                                  =   1.0000       
     0:tcyc                                                    =   1.0000n      
     0:trf                                                     =  50.0000p      
     0:pd24s1pw                                                =   7.0000       
     0:pd24s1nw                                                =   5.0000       
     0:pd24s2pw                                                =  13.0000       
     0:pd24s2nw                                                =   5.0000       
     0:pd416s3pw                                               =   9.0000       
     0:pd416s3nw                                               =   5.0000       
     0:pd416s4pw                                               =  12.0000       
     0:pd416s4nw                                               =   5.0000       
     0:pd416s5pw                                               =  12.0000       
     0:pd416s5nw                                               =   5.0000       
     0:pd416s6pw                                               =  30.0000       
     0:pd416s6nw                                               =  10.0000       
     0:dss7pw                                                  =   9.0000       
     0:dss7nw                                                  =   5.0000       
     0:dss8pw                                                  =  18.0000       
     0:dss8nw                                                  =   7.0000       
     0:bds9pw                                                  =  27.0000       
     0:bds9nw                                                  =  13.0000       
     0:bds10pw                                                 =  18.0000       
     0:bds10nw                                                 =   7.0000       
     0:blpcwidth                                               =  80.0000       
     0:wrenpwvdd                                               =  48.0000       
     0:wrenpwwl                                                =  48.0000       
     0:vdd_wr_value                                            = 800.0000m      
     0:wl0_rise                                                =   0.           
     0:wl0_width                                               =   0.           
     0:wl0_fall                                                =   0.           
     0:wl1_rise                                                =   0.           
     0:wl1_fall                                                =   0.           
     0:bl0_split                                               =   0.           
     0:bl1_split                                               =   0.           
     0:bl_pc_overlap                                           =   0.           
     0:bl63_pc_overlap                                         =   0.           
     0:clk-out0                                                =   0.           
     0:precharge                                               =   0.           
     0:sae-out0                                                =   0.           
     0:out0-width                                              =   0.           
     0:idsat_avg                                               =   0.           
     0:write_core_power                                        =   0.           
     0:vcell_power                                             =   0.           
     0:mem_core_power                                          =   0.           
   121:nl                                                      =   2.0000       
   121:nw                                                      =   5.0000       
   121:nm                                                      =   1.0000       
   121:pl                                                      =   2.0000       
   121:pw                                                      =   7.0000       
   121:pm                                                      =   1.0000       
   128:wp                                                      =  24.0000       
   128:lp                                                      =   2.0000       
   128:wn                                                      =   8.0000       
   128:ln                                                      =   2.0000       
   129:wp                                                      =  24.0000       
   129:lp                                                      =   2.0000       
   129:wn                                                      =   8.0000       
   129:ln                                                      =   2.0000       
   130:wp                                                      =  24.0000       
   130:lp                                                      =   2.0000       
   130:wn                                                      =   8.0000       
   130:ln                                                      =   2.0000       
   131:wp                                                      =  24.0000       
   131:lp                                                      =   2.0000       
   131:wn                                                      =   8.0000       
   131:ln                                                      =   2.0000       
   132:wp                                                      =  24.0000       
   132:lp                                                      =   2.0000       
   132:wn                                                      =   8.0000       
   132:ln                                                      =   2.0000       
   133:wp                                                      =  24.0000       
   133:lp                                                      =   2.0000       
   133:wn                                                      =   8.0000       
   133:ln                                                      =   2.0000       
   134:wp                                                      =  24.0000       
   134:lp                                                      =   2.0000       
   134:wn                                                      =   8.0000       
   134:ln                                                      =   2.0000       
   135:wp                                                      =  24.0000       
   135:lp                                                      =   2.0000       
   135:wn                                                      =   8.0000       
   135:ln                                                      =   2.0000       
   136:wp                                                      =  24.0000       
   136:lp                                                      =   2.0000       
   136:wn                                                      =   8.0000       
   136:ln                                                      =   2.0000       
   137:wp                                                      =  24.0000       
   137:lp                                                      =   2.0000       
   137:wn                                                      =   8.0000       
   137:ln                                                      =   2.0000       
   138:wp                                                      =  24.0000       
   138:lp                                                      =   2.0000       
   138:wn                                                      =   8.0000       
   138:ln                                                      =   2.0000       
   139:wp                                                      =  24.0000       
   139:lp                                                      =   2.0000       
   139:wn                                                      =   8.0000       
   139:ln                                                      =   2.0000       




 constants  - tnom         kt           vt           gapsi        ni
            298.15000    4.1163e-21    25.69184m     1.11562    1.2565e+16 
  **info** (part2_decoder_Blocked_Slowed_Switched_WR_Voltages.hsp:94) DC voltage reset to initial transient source value              in source        0:vblock0             new dc=  0.0000D+00
  **warning** (/usr/class/ee313/ee313_spice_header.h:18) Both nodes of element vgnd are connected together; Line ignored.
 ** warning** associated with encrypted blocks were suppressed

1****** HSPICE -- F-2011.09-SP2 32-BIT (Feb 27 2012) linux ******               
 ******  
 part 2

  ******  circuit element summary tnom=  25.000 temp=  25.000 *****


 **** capacitors
  
  
                                                                    
 element name        5:c1           5:c0        6:c1        6:c0    
 node1               5:predec_25    5:predec    0:sapc_b    0:b3sae 
 node2               0:0            0:0         0:0         0:0     
 model                                                              
 cap eff            22.5300f       22.5300f   560.0000a   560.0000a 
 tc1                 0.             0.          0.          0.      
 tc2                 0.             0.          0.          0.      
 scale               1.0000         1.0000      1.0000      1.0000  
 ic                  0.             0.          0.          0.      
 m                   1.0000         1.0000      1.0000      1.0000  
 w                   0.             0.          0.          0.      
 l                   0.             0.          0.          0.      
 temp               25.0000        25.0000     25.0000     25.0000  
  
  
                                                                
 element name        7:c1        7:c0      28:c2      28:c1     
 node1               0:sapc_b    0:b0sae    0:bl63     0:bl_b63 
 node2               0:0         0:0        0:0        0:0      
 model                                                          
 cap eff           560.0000a   560.0000a   88.0000a   88.0000a  
 tc1                 0.          0.         0.         0.       
 tc2                 0.          0.         0.         0.       
 scale               1.0000      1.0000     1.0000     1.0000   
 ic                  0.          0.         0.         0.       
 m                   1.0000      1.0000     1.0000     1.0000   
 w                   0.          0.         0.         0.       
 l                   0.          0.         0.         0.       
 temp               25.0000     25.0000    25.0000    25.0000   
  
  
                                                                  
 element name       28:c0         29:c2      29:c1       30:c2    
 node1               0:b3wl0_sw    0:bl63     0:bl_b63    0:bl63  
 node2               0:0           0:0        0:0         0:0     
 model                                                            
 cap eff           140.0000a      22.3520f   22.3520f    88.0000a 
 tc1                 0.            0.         0.          0.      
 tc2                 0.            0.         0.          0.      
 scale               1.0000        1.0000     1.0000      1.0000  
 ic                  0.            0.         0.          0.      
 m                   1.0000      254.0000   254.0000      1.0000  
 w                   0.            0.         0.          0.      
 l                   0.            0.         0.          0.      
 temp               25.0000       25.0000    25.0000     25.0000  
  
  
                                                                      
 element name       30:c1       30:c0         31:c2        31:c1      
 node1               0:bl_b63    0:b3wl255_    4:net0207    4:net0206 
 node2               0:0         0:0           0:0          0:0       
 model                                                                
 cap eff            88.0000a   140.0000a       5.5440f      5.5440f   
 tc1                 0.          0.            0.           0.        
 tc2                 0.          0.            0.           0.        
 scale               1.0000      1.0000        1.0000       1.0000    
 ic                  0.          0.            0.           0.        
 m                   1.0000      1.0000       63.0000      63.0000    
 w                   0.          0.            0.           0.        
 l                   0.          0.            0.           0.        
 temp               25.0000     25.0000       25.0000      25.0000    
  
  
                                                                       
 element name       31:c0         32:c2        32:c1        33:c2      
 node1               0:b3wl0_sw    4:net0207    4:net0206    4:net0207 
 node2               0:0           0:0          0:0          0:0       
 model                                                                 
 cap eff             8.8200f       1.4080p      1.4080p      5.5440f   
 tc1                 0.            0.           0.           0.        
 tc2                 0.            0.           0.           0.        
 scale               1.0000        1.0000       1.0000       1.0000    
 ic                  0.            0.           0.           0.        
 m                  63.0000       16.0000k     16.0000k     63.0000    
 w                   0.            0.           0.           0.        
 l                   0.            0.           0.           0.        
 temp               25.0000       25.0000      25.0000      25.0000    
  
  
                                                                       
 element name       33:c1        33:c0         34:c2        34:c1      
 node1               4:net0206    0:b3wl255_    4:net0163    4:net0162 
 node2               0:0          0:0           0:0          0:0       
 model                                                                 
 cap eff             5.5440f      8.8200f       5.6320f      5.6320f   
 tc1                 0.           0.            0.           0.        
 tc2                 0.           0.            0.           0.        
 scale               1.0000       1.0000        1.0000       1.0000    
 ic                  0.           0.            0.           0.        
 m                  63.0000      63.0000       64.0000      64.0000    
 w                   0.           0.            0.           0.        
 l                   0.           0.            0.           0.        
 temp               25.0000      25.0000       25.0000      25.0000    
  
  
                                                                        
 element name       34:c0         35:c2        35:c1        35:c0       
 node1               0:b2wl255_    4:net0163    4:net0162    0:b2wl0_sw 
 node2               0:0           0:0          0:0          0:0        
 model                                                                  
 cap eff             8.9600f       5.6320f      5.6320f      8.9600f    
 tc1                 0.            0.           0.           0.         
 tc2                 0.            0.           0.           0.         
 scale               1.0000        1.0000       1.0000       1.0000     
 ic                  0.            0.           0.           0.         
 m                  64.0000       64.0000      64.0000      64.0000     
 w                   0.            0.           0.           0.         
 l                   0.            0.           0.           0.         
 temp               25.0000       25.0000      25.0000      25.0000     
  
  
                                                                      
 element name       36:c2        36:c1        37:c2        37:c1      
 node1               4:net0163    4:net0162    4:net0180    4:net0136 
 node2               0:0          0:0          0:0          0:0       
 model                                                                
 cap eff             1.4309p      1.4309p      5.6320f      5.6320f   
 tc1                 0.           0.           0.           0.        
 tc2                 0.           0.           0.           0.        
 scale               1.0000       1.0000       1.0000       1.0000    
 ic                  0.           0.           0.           0.        
 m                  16.2600k     16.2600k     64.0000      64.0000    
 w                   0.           0.           0.           0.        
 l                   0.           0.           0.           0.        
 temp               25.0000      25.0000      25.0000      25.0000    
  
  
                                                                        
 element name       37:c0         38:c2        38:c1        38:c0       
 node1               0:b1wl0_sw    4:net0234    4:net0233    0:b0wl255_ 
 node2               0:0           0:0          0:0          0:0        
 model                                                                  
 cap eff             8.9600f       5.5440f      5.5440f      8.8200f    
 tc1                 0.            0.           0.           0.         
 tc2                 0.            0.           0.           0.         
 scale               1.0000        1.0000       1.0000       1.0000     
 ic                  0.            0.           0.           0.         
 m                  64.0000       63.0000      63.0000      63.0000     
 w                   0.            0.           0.           0.         
 l                   0.            0.           0.           0.         
 temp               25.0000       25.0000      25.0000      25.0000     
  
  
                                                                 
 element name       39:c2      39:c1      39:c0         40:c2    
 node1               0:bl0      0:bl_b0    0:b0wl255_    0:bl0   
 node2               0:0        0:0        0:0           0:0     
 model                                                           
 cap eff            88.0000a   88.0000a  140.0000a      22.3520f 
 tc1                 0.         0.         0.            0.      
 tc2                 0.         0.         0.            0.      
 scale               1.0000     1.0000     1.0000        1.0000  
 ic                  0.         0.         0.            0.      
 m                   1.0000     1.0000     1.0000      254.0000  
 w                   0.         0.         0.            0.      
 l                   0.         0.         0.            0.      
 temp               25.0000    25.0000    25.0000       25.0000  
  
  
                                                                    
 element name       40:c1      41:c2        41:c1        42:c2      
 node1               0:bl_b0    4:net0234    4:net0233    4:net0180 
 node2               0:0        0:0          0:0          0:0       
 model                                                              
 cap eff            22.3520f    1.4080p      1.4080p      1.4309p   
 tc1                 0.         0.           0.           0.        
 tc2                 0.         0.           0.           0.        
 scale               1.0000     1.0000       1.0000       1.0000    
 ic                  0.         0.           0.           0.        
 m                 254.0000    16.0000k     16.0000k     16.2600k   
 w                   0.         0.           0.           0.        
 l                   0.         0.           0.           0.        
 temp               25.0000    25.0000      25.0000      25.0000    
  
  
                                                                       
 element name       42:c1        43:c2        43:c1        43:c0       
 node1               4:net0136    4:net0180    4:net0136    0:b1wl255_ 
 node2               0:0          0:0          0:0          0:0        
 model                                                                 
 cap eff             1.4309p      5.6320f      5.6320f      8.9600f    
 tc1                 0.           0.           0.           0.         
 tc2                 0.           0.           0.           0.         
 scale               1.0000       1.0000       1.0000       1.0000     
 ic                  0.           0.           0.           0.         
 m                  16.2600k     64.0000      64.0000      64.0000     
 w                   0.           0.           0.           0.         
 l                   0.           0.           0.           0.         
 temp               25.0000      25.0000      25.0000      25.0000     
  
  
                                                                     
 element name       44:c2        44:c1        44:c0         45:c2    
 node1               4:net0234    4:net0233    0:b0wl0_sw    0:bl0   
 node2               0:0          0:0          0:0           0:0     
 model                                                               
 cap eff             5.5440f      5.5440f      8.8200f      88.0000a 
 tc1                 0.           0.           0.            0.      
 tc2                 0.           0.           0.            0.      
 scale               1.0000       1.0000       1.0000        1.0000  
 ic                  0.           0.           0.            0.      
 m                  63.0000      63.0000      63.0000        1.0000  
 w                   0.           0.           0.            0.      
 l                   0.           0.           0.            0.      
 temp               25.0000      25.0000      25.0000       25.0000  
  
  
                                           
 element name       45:c1      45:c0       
 node1               0:bl_b0    0:b0wl0_sw 
 node2               0:0        0:0        
 model                                     
 cap eff            88.0000a  140.0000a    
 tc1                 0.         0.         
 tc2                 0.         0.         
 scale               1.0000     1.0000     
 ic                  0.         0.         
 m                   1.0000     1.0000     
 w                   0.         0.         
 l                   0.         0.         
 temp               25.0000    25.0000     


 **** voltage-controlled voltage sources
      name        +             -          dimension  function  scale
       72:e_0            72:net_3           0:0              1      poly       1.    
       73:e_0            73:net_3           0:0              1      poly       1.    
       74:e_0            74:net_3           0:0              1      poly       1.    


 **** current-controlled current sources
      name        +             -          dimension  function  multiplier
       72:f_0            72:net_4           0:0              1      poly       1.    
       72:f_1            72:net_4           0:0              1      poly       1.    
       73:f_0            73:net_4           0:0              1      poly       1.    
       73:f_1            73:net_4           0:0              1      poly       1.    
       74:f_0            74:net_4           0:0              1      poly       1.    
       74:f_1            74:net_4           0:0              1      poly       1.    


 **** independent sources

     name         node1        node2      dc volt    ac mag    ac phase    type
  v_supply  vdd               0                    1.0000     0.         0.      dc   
  v_supply1  vdd!              0                    1.0000     0.         0.      dc   
  vblock0  block0            0                    0.         0.         0.      pulse
             initial value     0.     
             pulsed value.     1.0000 
             delay time...   500.0000p
             risetime.....    50.0000p
             falltime.....    50.0000p
             width........     2.0000n
             period.......     4.0000n

  vblock3  block3            0                    1.0000     0.         0.      pulse
             initial value     1.0000 
             pulsed value.     0.     
             delay time...   500.0000p
             risetime.....    50.0000p
             falltime.....    50.0000p
             width........     2.0000n
             period.......     4.0000n

  vblpc_b  blpc_b            0                    1.0000     0.         0.      pulse
             initial value     1.0000 
             pulsed value.     0.     
             delay time...   185.0000p
             risetime.....    50.0000p
             falltime.....    50.0000p
             width........   450.0000p
             period.......     1.0000n

  vsae  sae               0                    0.         0.         0.      pulse
             initial value     0.     
             pulsed value.     1.0000 
             delay time...   900.0000p
             risetime.....    50.0000p
             falltime.....    50.0000p
             width........   450.0000p
             period.......     1.0000n

  vsapc_b  sapc_b            0                    1.0000     0.         0.      pulse
             initial value     1.0000 
             pulsed value.     0.     
             delay time...   300.0000p
             risetime.....    50.0000p
             falltime.....    50.0000p
             width........   450.0000p
             period.......     1.0000n

  vsel_b0  sel_b0            0                    1.0000     0.         0.      pulse
             initial value     1.0000 
             pulsed value.     0.     
             delay time...   800.0000p
             risetime.....    50.0000p
             falltime.....    50.0000p
             width........   450.0000p
             period.......     1.0000n

  vsel_b63  sel_b63           0                    1.0000     0.         0.      pulse
             initial value     1.0000 
             pulsed value.     0.     
             delay time...   800.0000p
             risetime.....    50.0000p
             falltime.....    50.0000p
             width........   450.0000p
             period.......     1.0000n

  vvcell  vcell             0                  900.0000m    0.         0.      dc   
  vvdd_wr  vdd_wr            0                  800.0000m    0.         0.      dc   
  vwrdata0  wrdata0           0                    0.         0.         0.      dc   
  vwrdata255  wrdata255         0                    1.0000     0.         0.      dc   
  vwren  wren              0                    0.         0.         0.      pulse
             initial value     0.     
             pulsed value.     1.0000 
             delay time...     8.5000n
             risetime.....    50.0000p
             falltime.....    50.0000p
             width........     4.0000n
             period.......    12.0000n

 xclk_gen.vsrc xclk_gen.src               0                    0.         0.         0.      pulse
             initial value     0.     
             pulsed value.     1.0000 
             delay time...   500.0000p
             risetime.....    50.0000p
             falltime.....    50.0000p
             width........   450.0000p
             period.......     1.0000n

 xa0_gen.vsrc xa0_gen.src               0                    0.         0.         0.      pulse
             initial value     0.     
             pulsed value.     1.0000 
             delay time...   375.0000p
             risetime.....    50.0000p
             falltime.....    50.0000p
             width........   950.0000p
             period.......     2.0000n

 xa255_gen.vsrc xa255_gen.src               0                    0.         0.         0.      pulse
             initial value     0.     
             pulsed value.     1.0000 
             delay time...     1.3750n
             risetime.....    50.0000p
             falltime.....    50.0000p
             width........   950.0000p
             period.......     2.0000n

 xclk_gen.xgen.v_monitor xclk_gen.xgen.net_4             0                    1.0000     0.         0.      dc   
 xclk_gen.xgen.v_sense xclk_gen.xgen.net_3             ck                   0.         0.         0.      dc   
 xa0_gen.xgen.v_monitor xa0_gen.xgen.net_4             0                    1.0000     0.         0.      dc   
 xa0_gen.xgen.v_sense xa0_gen.xgen.net_3             a0                   0.         0.         0.      dc   
 xa255_gen.xgen.v_monitor xa255_gen.xgen.net_4             0                    1.0000     0.         0.      dc   
 xa255_gen.xgen.v_sense xa255_gen.xgen.net_3             a255                 0.         0.         0.      dc   
 xclk_gen.xgen.x_0.x_0.vstimulus_supply xclk_gen.xgen.x_0.x_0.vdd_stimulus      0                    1.0000     0.         0.      dc   
 xclk_gen.xgen.x_0.x_1.vstimulus_supply xclk_gen.xgen.x_0.x_1.vdd_stimulus      0                    1.0000     0.         0.      dc   
 xclk_gen.xgen.x_0.x_2.vstimulus_supply xclk_gen.xgen.x_0.x_2.vdd_stimulus      0                    1.0000     0.         0.      dc   
 xclk_gen.xgen.x_0.x_3.vstimulus_supply xclk_gen.xgen.x_0.x_3.vdd_stimulus      0                    1.0000     0.         0.      dc   
 xa0_gen.xgen.x_0.x_0.vstimulus_supply xa0_gen.xgen.x_0.x_0.vdd_stimulus      0                    1.0000     0.         0.      dc   
 xa0_gen.xgen.x_0.x_1.vstimulus_supply xa0_gen.xgen.x_0.x_1.vdd_stimulus      0                    1.0000     0.         0.      dc   
 xa0_gen.xgen.x_0.x_2.vstimulus_supply xa0_gen.xgen.x_0.x_2.vdd_stimulus      0                    1.0000     0.         0.      dc   
 xa0_gen.xgen.x_0.x_3.vstimulus_supply xa0_gen.xgen.x_0.x_3.vdd_stimulus      0                    1.0000     0.         0.      dc   
 xa255_gen.xgen.x_0.x_0.vstimulus_supply xa255_gen.xgen.x_0.x_0.vdd_stimulus      0                    1.0000     0.         0.      dc   
 xa255_gen.xgen.x_0.x_1.vstimulus_supply xa255_gen.xgen.x_0.x_1.vdd_stimulus      0                    1.0000     0.         0.      dc   
 xa255_gen.xgen.x_0.x_2.vstimulus_supply xa255_gen.xgen.x_0.x_2.vdd_stimulus      0                    1.0000     0.         0.      dc   
 xa255_gen.xgen.x_0.x_3.vstimulus_supply xa255_gen.xgen.x_0.x_3.vdd_stimulus      0                    1.0000     0.         0.      dc   


 **** mosfets


 **** BSIM4 Model (Level 54)
  
  
                                                                
 element name        6:m4       6:m3       6:meq       6:mpc2   
 drain               6:sbl_b    0:vdd!     6:sbl       0:vdd!   
 gate                6:sbl      6:sbl_b    0:sapc_b    0:sapc_b 
 source              0:vdd!     6:sbl      6:sbl_b     6:sbl_b  
 bulk                0:vdd!     0:vdd!     0:vdd!      0:vdd!   
 model               0:pmos     0:pmos     0:pmos      0:pmos   
 w eff              78.0000n   78.0000n  166.0000n   166.0000n  
 l eff              29.0000n   29.0000n   29.0000n    29.0000n  
 rd eff              0.         0.         0.          0.       
 rs eff              0.         0.         0.          0.       
 cdsat               7.8700a    7.8700a   15.1073a    15.1073a  
 cssat               7.8700a    7.8700a   15.1073a    15.1073a  
 capbd             133.6681a  133.6681a  223.4243a   223.4243a  
 capbs             116.1033a  116.1033a  188.2947a   188.2947a  
 temp               25.0000    25.0000    25.0000     25.0000   
 aic                                                            
 nf                  1.0000     1.0000     1.0000      1.0000   
 min                 0.         0.         0.          0.       
 rbdb               15.0000    15.0000    15.0000     15.0000   
 rbsb               15.0000    15.0000    15.0000     15.0000   
 rbpb                5.0000     5.0000     5.0000      5.0000   
 rbps               15.0000    15.0000    15.0000     15.0000   
 rbpd               15.0000    15.0000    15.0000     15.0000   
 trnqsmod            0.         0.         0.          0.       
 acnqsmod            0.         0.         0.          0.       
 rbodymod            1.0000     1.0000     1.0000      1.0000   
 rgatemod            1.0000     1.0000     1.0000      1.0000   
 geomod              0.         0.         0.          0.       
 rgeomod             0.         0.         0.          0.       
 delvto              0.         0.         0.          0.       
 mulu0               1.0000     1.0000     1.0000      1.0000   
 delk1               0.         0.         0.          0.       
 delnfct             0.         0.         0.          0.       
 deltox              0.         0.         0.          0.       
 sa                  0.         0.         0.          0.       
 sb                  0.         0.         0.          0.       
 sd                  0.         0.         0.          0.       
 saeff               0.         0.         0.          0.       
 sbeff               0.         0.         0.          0.       
  
  
                                                                 
 element name        6:mpc       6:miso_b    6:miso     6:mmx4_b 
 drain               6:sbl       6:sbl_b     6:sbl      6:cmbl_b 
 gate                0:sapc_b    0:b3sae     0:b3sae    0:vdd!   
 source              0:vdd!      6:cmbl_b    6:cmbl     0:vdd!   
 bulk                0:vdd!      0:vdd!      0:vdd!     0:vdd!   
 model               0:pmos      0:pmos      0:pmos     0:pmos   
 w eff             166.0000n   254.0000n   254.0000n  518.0000n  
 l eff              29.0000n    29.0000n    29.0000n   29.0000n  
 rd eff              0.          0.          0.         0.       
 rs eff              0.          0.          0.         0.       
 cdsat              15.1073a    22.3447a    22.3447a   44.0567a  
 cssat              15.1073a    22.3447a    22.3447a   44.0567a  
 capbd             223.4243a   313.1804a   313.1804a  582.4488a  
 capbs             188.2947a   260.4860a   260.4860a  477.0600a  
 temp               25.0000     25.0000     25.0000    25.0000   
 aic                                                             
 nf                  1.0000      1.0000      1.0000     1.0000   
 min                 0.          0.          0.         0.       
 rbdb               15.0000     15.0000     15.0000    15.0000   
 rbsb               15.0000     15.0000     15.0000    15.0000   
 rbpb                5.0000      5.0000      5.0000     5.0000   
 rbps               15.0000     15.0000     15.0000    15.0000   
 rbpd               15.0000     15.0000     15.0000    15.0000   
 trnqsmod            0.          0.          0.         0.       
 acnqsmod            0.          0.          0.         0.       
 rbodymod            1.0000      1.0000      1.0000     1.0000   
 rgatemod            1.0000      1.0000      1.0000     1.0000   
 geomod              0.          0.          0.         0.       
 rgeomod             0.          0.          0.         0.       
 delvto              0.          0.          0.         0.       
 mulu0               1.0000      1.0000      1.0000     1.0000   
 delk1               0.          0.          0.         0.       
 delnfct             0.          0.          0.         0.       
 deltox              0.          0.          0.         0.       
 sa                  0.          0.          0.         0.       
 sb                  0.          0.          0.         0.       
 sd                  0.          0.          0.         0.       
 saeff               0.          0.          0.         0.       
 sbeff               0.          0.          0.         0.       
  
  
                                                                
 element name        6:mmx4     6:mmx3_b    6:mmx3     6:mmx2_b 
 drain               6:cmbl     6:cmbl_b    6:cmbl     6:cmbl_b 
 gate                0:vdd!     0:vdd!      0:vdd!     0:vdd!   
 source              0:vdd!     0:vdd!      0:vdd!     0:vdd!   
 bulk                0:vdd!     0:vdd!      0:vdd!     0:vdd!   
 model               0:pmos     0:pmos      0:pmos     0:pmos   
 w eff             518.0000n  518.0000n   518.0000n  518.0000n  
 l eff              29.0000n   29.0000n    29.0000n   29.0000n  
 rd eff              0.         0.          0.         0.       
 rs eff              0.         0.          0.         0.       
 cdsat              44.0567a   44.0567a    44.0567a   44.0567a  
 cssat              44.0567a   44.0567a    44.0567a   44.0567a  
 capbd             582.4488a  582.4488a   582.4488a  582.4488a  
 capbs             477.0600a  477.0600a   477.0600a  477.0600a  
 temp               25.0000    25.0000     25.0000    25.0000   
 aic                                                            
 nf                  1.0000     1.0000      1.0000     1.0000   
 min                 0.         0.          0.         0.       
 rbdb               15.0000    15.0000     15.0000    15.0000   
 rbsb               15.0000    15.0000     15.0000    15.0000   
 rbpb                5.0000     5.0000      5.0000     5.0000   
 rbps               15.0000    15.0000     15.0000    15.0000   
 rbpd               15.0000    15.0000     15.0000    15.0000   
 trnqsmod            0.         0.          0.         0.       
 acnqsmod            0.         0.          0.         0.       
 rbodymod            1.0000     1.0000      1.0000     1.0000   
 rgatemod            1.0000     1.0000      1.0000     1.0000   
 geomod              0.         0.          0.         0.       
 rgeomod             0.         0.          0.         0.       
 delvto              0.         0.          0.         0.       
 mulu0               1.0000     1.0000      1.0000     1.0000   
 delk1               0.         0.          0.         0.       
 delnfct             0.         0.          0.         0.       
 deltox              0.         0.          0.         0.       
 sa                  0.         0.          0.         0.       
 sb                  0.         0.          0.         0.       
 sd                  0.         0.          0.         0.       
 saeff               0.         0.          0.         0.       
 sbeff               0.         0.          0.         0.       
  
  
                                                                    
 element name        6:mmx2     6:mmx_b       6:mmx         6:mtail 
 drain               6:cmbl     6:cmbl_b      6:cmbl        6:tail  
 gate                0:vdd!     0:b3sel_b6    0:b3sel_b6    0:b3sae 
 source              0:vdd!     0:bl_b63      0:bl63        0:0     
 bulk                0:vdd!     0:vdd!        0:vdd!        0:0     
 model               0:pmos     0:pmos        0:pmos        0:nmos  
 w eff             518.0000n  518.0000n     518.0000n     166.0000n 
 l eff              29.0000n   29.0000n      29.0000n      29.0000n 
 rd eff              0.         0.            0.            0.      
 rs eff              0.         0.            0.            0.      
 cdsat              44.0567a   44.0567a      44.0567a      15.1073a 
 cssat              44.0567a   44.0567a      44.0567a      15.1073a 
 capbd             582.4488a  582.4488a     582.4488a     223.4243a 
 capbs             477.0600a  477.0600a     477.0600a     188.2947a 
 temp               25.0000    25.0000       25.0000       25.0000  
 aic                                                                
 nf                  1.0000     1.0000        1.0000        1.0000  
 min                 0.         0.            0.            0.      
 rbdb               15.0000    15.0000       15.0000       15.0000  
 rbsb               15.0000    15.0000       15.0000       15.0000  
 rbpb                5.0000     5.0000        5.0000        5.0000  
 rbps               15.0000    15.0000       15.0000       15.0000  
 rbpd               15.0000    15.0000       15.0000       15.0000  
 trnqsmod            0.         0.            0.            0.      
 acnqsmod            0.         0.            0.            0.      
 rbodymod            1.0000     1.0000        1.0000        1.0000  
 rgatemod            1.0000     1.0000        1.0000        1.0000  
 geomod              0.         0.            0.            0.      
 rgeomod             0.         0.            0.            0.      
 delvto              0.         0.            0.            0.      
 mulu0               1.0000     1.0000        1.0000        1.0000  
 delk1               0.         0.            0.            0.      
 delnfct             0.         0.            0.            0.      
 deltox              0.         0.            0.            0.      
 sa                  0.         0.            0.            0.      
 sb                  0.         0.            0.            0.      
 sd                  0.         0.            0.            0.      
 saeff               0.         0.            0.            0.      
 sbeff               0.         0.            0.            0.      
  
  
                                                              
 element name        6:m1       6:m2       7:m4       7:m3    
 drain               6:tail     6:sbl_b    7:sbl_b    0:vdd!  
 gate                6:sbl_b    6:sbl      7:sbl      7:sbl_b 
 source              6:sbl      6:tail     0:vdd!     7:sbl   
 bulk                0:0        0:0        0:vdd!     0:vdd!  
 model               0:nmos     0:nmos     0:pmos     0:pmos  
 w eff             122.0000n  122.0000n   78.0000n   78.0000n 
 l eff              29.0000n   29.0000n   29.0000n   29.0000n 
 rd eff              0.         0.         0.         0.      
 rs eff              0.         0.         0.         0.      
 cdsat              11.4887a   11.4887a    7.8700a    7.8700a 
 cssat              11.4887a   11.4887a    7.8700a    7.8700a 
 capbd             178.5462a  178.5462a  133.6681a  133.6681a 
 capbs             152.1990a  152.1990a  116.1033a  116.1033a 
 temp               25.0000    25.0000    25.0000    25.0000  
 aic                                                          
 nf                  1.0000     1.0000     1.0000     1.0000  
 min                 0.         0.         0.         0.      
 rbdb               15.0000    15.0000    15.0000    15.0000  
 rbsb               15.0000    15.0000    15.0000    15.0000  
 rbpb                5.0000     5.0000     5.0000     5.0000  
 rbps               15.0000    15.0000    15.0000    15.0000  
 rbpd               15.0000    15.0000    15.0000    15.0000  
 trnqsmod            0.         0.         0.         0.      
 acnqsmod            0.         0.         0.         0.      
 rbodymod            1.0000     1.0000     1.0000     1.0000  
 rgatemod            1.0000     1.0000     1.0000     1.0000  
 geomod              0.         0.         0.         0.      
 rgeomod             0.         0.         0.         0.      
 delvto              0.         0.         0.         0.      
 mulu0               1.0000     1.0000     1.0000     1.0000  
 delk1               0.         0.         0.         0.      
 delnfct             0.         0.         0.         0.      
 deltox              0.         0.         0.         0.      
 sa                  0.         0.         0.         0.      
 sb                  0.         0.         0.         0.      
 sd                  0.         0.         0.         0.      
 saeff               0.         0.         0.         0.      
 sbeff               0.         0.         0.         0.      
  
  
                                                                  
 element name        7:meq       7:mpc2      7:mpc       7:miso_b 
 drain               7:sbl       0:vdd!      7:sbl       7:sbl_b  
 gate                0:sapc_b    0:sapc_b    0:sapc_b    0:b0sae  
 source              7:sbl_b     7:sbl_b     0:vdd!      7:cmbl_b 
 bulk                0:vdd!      0:vdd!      0:vdd!      0:vdd!   
 model               0:pmos      0:pmos      0:pmos      0:pmos   
 w eff             166.0000n   166.0000n   166.0000n   254.0000n  
 l eff              29.0000n    29.0000n    29.0000n    29.0000n  
 rd eff              0.          0.          0.          0.       
 rs eff              0.          0.          0.          0.       
 cdsat              15.1073a    15.1073a    15.1073a    22.3447a  
 cssat              15.1073a    15.1073a    15.1073a    22.3447a  
 capbd             223.4243a   223.4243a   223.4243a   313.1804a  
 capbs             188.2947a   188.2947a   188.2947a   260.4860a  
 temp               25.0000     25.0000     25.0000     25.0000   
 aic                                                              
 nf                  1.0000      1.0000      1.0000      1.0000   
 min                 0.          0.          0.          0.       
 rbdb               15.0000     15.0000     15.0000     15.0000   
 rbsb               15.0000     15.0000     15.0000     15.0000   
 rbpb                5.0000      5.0000      5.0000      5.0000   
 rbps               15.0000     15.0000     15.0000     15.0000   
 rbpd               15.0000     15.0000     15.0000     15.0000   
 trnqsmod            0.          0.          0.          0.       
 acnqsmod            0.          0.          0.          0.       
 rbodymod            1.0000      1.0000      1.0000      1.0000   
 rgatemod            1.0000      1.0000      1.0000      1.0000   
 geomod              0.          0.          0.          0.       
 rgeomod             0.          0.          0.          0.       
 delvto              0.          0.          0.          0.       
 mulu0               1.0000      1.0000      1.0000      1.0000   
 delk1               0.          0.          0.          0.       
 delnfct             0.          0.          0.          0.       
 deltox              0.          0.          0.          0.       
 sa                  0.          0.          0.          0.       
 sb                  0.          0.          0.          0.       
 sd                  0.          0.          0.          0.       
 saeff               0.          0.          0.          0.       
 sbeff               0.          0.          0.          0.       
  
  
                                                                
 element name        7:miso     7:mmx4_b    7:mmx4     7:mmx3_b 
 drain               7:sbl      7:cmbl_b    7:cmbl     7:cmbl_b 
 gate                0:b0sae    0:vdd!      0:vdd!     0:vdd!   
 source              7:cmbl     0:vdd!      0:vdd!     0:vdd!   
 bulk                0:vdd!     0:vdd!      0:vdd!     0:vdd!   
 model               0:pmos     0:pmos      0:pmos     0:pmos   
 w eff             254.0000n  518.0000n   518.0000n  518.0000n  
 l eff              29.0000n   29.0000n    29.0000n   29.0000n  
 rd eff              0.         0.          0.         0.       
 rs eff              0.         0.          0.         0.       
 cdsat              22.3447a   44.0567a    44.0567a   44.0567a  
 cssat              22.3447a   44.0567a    44.0567a   44.0567a  
 capbd             313.1804a  582.4488a   582.4488a  582.4488a  
 capbs             260.4860a  477.0600a   477.0600a  477.0600a  
 temp               25.0000    25.0000     25.0000    25.0000   
 aic                                                            
 nf                  1.0000     1.0000      1.0000     1.0000   
 min                 0.         0.          0.         0.       
 rbdb               15.0000    15.0000     15.0000    15.0000   
 rbsb               15.0000    15.0000     15.0000    15.0000   
 rbpb                5.0000     5.0000      5.0000     5.0000   
 rbps               15.0000    15.0000     15.0000    15.0000   
 rbpd               15.0000    15.0000     15.0000    15.0000   
 trnqsmod            0.         0.          0.         0.       
 acnqsmod            0.         0.          0.         0.       
 rbodymod            1.0000     1.0000      1.0000     1.0000   
 rgatemod            1.0000     1.0000      1.0000     1.0000   
 geomod              0.         0.          0.         0.       
 rgeomod             0.         0.          0.         0.       
 delvto              0.         0.          0.         0.       
 mulu0               1.0000     1.0000      1.0000     1.0000   
 delk1               0.         0.          0.         0.       
 delnfct             0.         0.          0.         0.       
 deltox              0.         0.          0.         0.       
 sa                  0.         0.          0.         0.       
 sb                  0.         0.          0.         0.       
 sd                  0.         0.          0.         0.       
 saeff               0.         0.          0.         0.       
 sbeff               0.         0.          0.         0.       
  
  
                                                                  
 element name        7:mmx3     7:mmx2_b    7:mmx2     7:mmx_b    
 drain               7:cmbl     7:cmbl_b    7:cmbl     7:cmbl_b   
 gate                0:vdd!     0:vdd!      0:vdd!     0:b0sel_b0 
 source              0:vdd!     0:vdd!      0:vdd!     0:bl_b0    
 bulk                0:vdd!     0:vdd!      0:vdd!     0:vdd!     
 model               0:pmos     0:pmos      0:pmos     0:pmos     
 w eff             518.0000n  518.0000n   518.0000n  518.0000n    
 l eff              29.0000n   29.0000n    29.0000n   29.0000n    
 rd eff              0.         0.          0.         0.         
 rs eff              0.         0.          0.         0.         
 cdsat              44.0567a   44.0567a    44.0567a   44.0567a    
 cssat              44.0567a   44.0567a    44.0567a   44.0567a    
 capbd             582.4488a  582.4488a   582.4488a  582.4488a    
 capbs             477.0600a  477.0600a   477.0600a  477.0600a    
 temp               25.0000    25.0000     25.0000    25.0000     
 aic                                                              
 nf                  1.0000     1.0000      1.0000     1.0000     
 min                 0.         0.          0.         0.         
 rbdb               15.0000    15.0000     15.0000    15.0000     
 rbsb               15.0000    15.0000     15.0000    15.0000     
 rbpb                5.0000     5.0000      5.0000     5.0000     
 rbps               15.0000    15.0000     15.0000    15.0000     
 rbpd               15.0000    15.0000     15.0000    15.0000     
 trnqsmod            0.         0.          0.         0.         
 acnqsmod            0.         0.          0.         0.         
 rbodymod            1.0000     1.0000      1.0000     1.0000     
 rgatemod            1.0000     1.0000      1.0000     1.0000     
 geomod              0.         0.          0.         0.         
 rgeomod             0.         0.          0.         0.         
 delvto              0.         0.          0.         0.         
 mulu0               1.0000     1.0000      1.0000     1.0000     
 delk1               0.         0.          0.         0.         
 delnfct             0.         0.          0.         0.         
 deltox              0.         0.          0.         0.         
 sa                  0.         0.          0.         0.         
 sb                  0.         0.          0.         0.         
 sd                  0.         0.          0.         0.         
 saeff               0.         0.          0.         0.         
 sbeff               0.         0.          0.         0.         
  
  
                                                                 
 element name        7:mmx         7:mtail    7:m1       7:m2    
 drain               7:cmbl        7:tail     7:tail     7:sbl_b 
 gate                0:b0sel_b0    0:b0sae    7:sbl_b    7:sbl   
 source              0:bl0         0:0        7:sbl      7:tail  
 bulk                0:vdd!        0:0        0:0        0:0     
 model               0:pmos        0:nmos     0:nmos     0:nmos  
 w eff             518.0000n     166.0000n  122.0000n  122.0000n 
 l eff              29.0000n      29.0000n   29.0000n   29.0000n 
 rd eff              0.            0.         0.         0.      
 rs eff              0.            0.         0.         0.      
 cdsat              44.0567a      15.1073a   11.4887a   11.4887a 
 cssat              44.0567a      15.1073a   11.4887a   11.4887a 
 capbd             582.4488a     223.4243a  178.5462a  178.5462a 
 capbs             477.0600a     188.2947a  152.1990a  152.1990a 
 temp               25.0000       25.0000    25.0000    25.0000  
 aic                                                             
 nf                  1.0000        1.0000     1.0000     1.0000  
 min                 0.            0.         0.         0.      
 rbdb               15.0000       15.0000    15.0000    15.0000  
 rbsb               15.0000       15.0000    15.0000    15.0000  
 rbpb                5.0000        5.0000     5.0000     5.0000  
 rbps               15.0000       15.0000    15.0000    15.0000  
 rbpd               15.0000       15.0000    15.0000    15.0000  
 trnqsmod            0.            0.         0.         0.      
 acnqsmod            0.            0.         0.         0.      
 rbodymod            1.0000        1.0000     1.0000     1.0000  
 rgatemod            1.0000        1.0000     1.0000     1.0000  
 geomod              0.            0.         0.         0.      
 rgeomod             0.            0.         0.         0.      
 delvto              0.            0.         0.         0.      
 mulu0               1.0000        1.0000     1.0000     1.0000  
 delk1               0.            0.         0.         0.      
 delnfct             0.            0.         0.         0.      
 deltox              0.            0.         0.         0.      
 sa                  0.            0.         0.         0.      
 sb                  0.            0.         0.         0.      
 sd                  0.            0.         0.         0.      
 saeff               0.            0.         0.         0.      
 sbeff               0.            0.         0.         0.      
  
  
                                                                  
 element name       12:m1      12:m2      13:m1        13:m2      
 drain               0:b3sae    0:b3sae    1:net8       1:net8    
 gate                1:net10    1:net10    0:sel_b63    0:sel_b63 
 source              0:vdd!     0:0        0:vdd!       0:0       
 bulk                0:vdd!     0:0        0:vdd!       0:0       
 model               0:pmos     0:nmos     0:pmos       0:nmos    
 w eff             342.0000n  166.0000n  342.0000n    166.0000n   
 l eff              29.0000n   29.0000n   29.0000n     29.0000n   
 rd eff              0.         0.         0.           0.        
 rs eff              0.         0.         0.           0.        
 cdsat              29.5820a   15.1073a   29.5820a     15.1073a   
 cssat              29.5820a   15.1073a   29.5820a     15.1073a   
 capbd             402.9365a  223.4243a  402.9365a    223.4243a   
 capbs             332.6773a  188.2947a  332.6773a    188.2947a   
 temp               25.0000    25.0000    25.0000      25.0000    
 aic                                                              
 nf                  1.0000     1.0000     1.0000       1.0000    
 min                 0.         0.         0.           0.        
 rbdb               15.0000    15.0000    15.0000      15.0000    
 rbsb               15.0000    15.0000    15.0000      15.0000    
 rbpb                5.0000     5.0000     5.0000       5.0000    
 rbps               15.0000    15.0000    15.0000      15.0000    
 rbpd               15.0000    15.0000    15.0000      15.0000    
 trnqsmod            0.         0.         0.           0.        
 acnqsmod            0.         0.         0.           0.        
 rbodymod            1.0000     1.0000     1.0000       1.0000    
 rgatemod            1.0000     1.0000     1.0000       1.0000    
 geomod              0.         0.         0.           0.        
 rgeomod             0.         0.         0.           0.        
 delvto              0.         0.         0.           0.        
 mulu0               1.0000     1.0000     1.0000       1.0000    
 delk1               0.         0.         0.           0.        
 delnfct             0.         0.         0.           0.        
 deltox              0.         0.         0.           0.        
 sa                  0.         0.         0.           0.        
 sb                  0.         0.         0.           0.        
 sd                  0.         0.         0.           0.        
 saeff               0.         0.         0.           0.        
 sbeff               0.         0.         0.           0.        
  
  
                                                                
 element name       14:m2      14:m0       14:m3      14:m1     
 drain               1:net10    1:net10    14:mid_a    1:net10  
 gate                0:sae      0:block3    0:sae      0:block3 
 source              0:vdd!     0:vdd!      0:0       14:mid_a  
 bulk                0:vdd!     0:vdd!      0:0        0:0      
 model               0:pmos     0:pmos      0:nmos     0:nmos   
 w eff             166.0000n  166.0000n   166.0000n  166.0000n  
 l eff              29.0000n   29.0000n    29.0000n   29.0000n  
 rd eff              0.         0.          0.         0.       
 rs eff              0.         0.          0.         0.       
 cdsat              15.1073a   15.1073a    15.1073a   15.1073a  
 cssat              15.1073a   15.1073a    15.1073a   15.1073a  
 capbd             223.4243a  223.4243a   223.4243a  223.4243a  
 capbs             188.2947a  188.2947a   188.2947a  188.2947a  
 temp               25.0000    25.0000     25.0000    25.0000   
 aic                                                            
 nf                  1.0000     1.0000      1.0000     1.0000   
 min                 0.         0.          0.         0.       
 rbdb               15.0000    15.0000     15.0000    15.0000   
 rbsb               15.0000    15.0000     15.0000    15.0000   
 rbpb                5.0000     5.0000      5.0000     5.0000   
 rbps               15.0000    15.0000     15.0000    15.0000   
 rbpd               15.0000    15.0000     15.0000    15.0000   
 trnqsmod            0.         0.          0.         0.       
 acnqsmod            0.         0.          0.         0.       
 rbodymod            1.0000     1.0000      1.0000     1.0000   
 rgatemod            1.0000     1.0000      1.0000     1.0000   
 geomod              0.         0.          0.         0.       
 rgeomod             0.         0.          0.         0.       
 delvto              0.         0.          0.         0.       
 mulu0               1.0000     1.0000      1.0000     1.0000   
 delk1               0.         0.          0.         0.       
 delnfct             0.         0.          0.         0.       
 deltox              0.         0.          0.         0.       
 sa                  0.         0.          0.         0.       
 sb                  0.         0.          0.         0.       
 sd                  0.         0.          0.         0.       
 saeff               0.         0.          0.         0.       
 sbeff               0.         0.          0.         0.       
  
  
                                                                        
 element name       15:m2         15:m0         15:m3       15:m1       
 drain               0:b3sel_b6    0:b3sel_b6   15:mid_a     0:b3sel_b6 
 gate                0:block3      1:net8        0:block3    1:net8     
 source              0:vdd!        0:vdd!        0:0        15:mid_a    
 bulk                0:vdd!        0:vdd!        0:0         0:0        
 model               0:pmos        0:pmos        0:nmos      0:nmos     
 w eff             166.0000n     166.0000n     166.0000n   166.0000n    
 l eff              29.0000n      29.0000n      29.0000n    29.0000n    
 rd eff              0.            0.            0.          0.         
 rs eff              0.            0.            0.          0.         
 cdsat              15.1073a      15.1073a      15.1073a    15.1073a    
 cssat              15.1073a      15.1073a      15.1073a    15.1073a    
 capbd             223.4243a     223.4243a     223.4243a   223.4243a    
 capbs             188.2947a     188.2947a     188.2947a   188.2947a    
 temp               25.0000       25.0000       25.0000     25.0000     
 aic                                                                    
 nf                  1.0000        1.0000        1.0000      1.0000     
 min                 0.            0.            0.          0.         
 rbdb               15.0000       15.0000       15.0000     15.0000     
 rbsb               15.0000       15.0000       15.0000     15.0000     
 rbpb                5.0000        5.0000        5.0000      5.0000     
 rbps               15.0000       15.0000       15.0000     15.0000     
 rbpd               15.0000       15.0000       15.0000     15.0000     
 trnqsmod            0.            0.            0.          0.         
 acnqsmod            0.            0.            0.          0.         
 rbodymod            1.0000        1.0000        1.0000      1.0000     
 rgatemod            1.0000        1.0000        1.0000      1.0000     
 geomod              0.            0.            0.          0.         
 rgeomod             0.            0.            0.          0.         
 delvto              0.            0.            0.          0.         
 mulu0               1.0000        1.0000        1.0000      1.0000     
 delk1               0.            0.            0.          0.         
 delnfct             0.            0.            0.          0.         
 deltox              0.            0.            0.          0.         
 sa                  0.            0.            0.          0.         
 sb                  0.            0.            0.          0.         
 sd                  0.            0.            0.          0.         
 saeff               0.            0.            0.          0.         
 sbeff               0.            0.            0.          0.         
  
  
                                                                
 element name       16:m1      16:m2      17:m1       17:m2     
 drain               0:b0sae    0:b0sae    2:net8      2:net8   
 gate                2:net10    2:net10    0:sel_b0    0:sel_b0 
 source              0:vdd!     0:0        0:vdd!      0:0      
 bulk                0:vdd!     0:0        0:vdd!      0:0      
 model               0:pmos     0:nmos     0:pmos      0:nmos   
 w eff             342.0000n  166.0000n  342.0000n   166.0000n  
 l eff              29.0000n   29.0000n   29.0000n    29.0000n  
 rd eff              0.         0.         0.          0.       
 rs eff              0.         0.         0.          0.       
 cdsat              29.5820a   15.1073a   29.5820a    15.1073a  
 cssat              29.5820a   15.1073a   29.5820a    15.1073a  
 capbd             402.9365a  223.4243a  402.9365a   223.4243a  
 capbs             332.6773a  188.2947a  332.6773a   188.2947a  
 temp               25.0000    25.0000    25.0000     25.0000   
 aic                                                            
 nf                  1.0000     1.0000     1.0000      1.0000   
 min                 0.         0.         0.          0.       
 rbdb               15.0000    15.0000    15.0000     15.0000   
 rbsb               15.0000    15.0000    15.0000     15.0000   
 rbpb                5.0000     5.0000     5.0000      5.0000   
 rbps               15.0000    15.0000    15.0000     15.0000   
 rbpd               15.0000    15.0000    15.0000     15.0000   
 trnqsmod            0.         0.         0.          0.       
 acnqsmod            0.         0.         0.          0.       
 rbodymod            1.0000     1.0000     1.0000      1.0000   
 rgatemod            1.0000     1.0000     1.0000      1.0000   
 geomod              0.         0.         0.          0.       
 rgeomod             0.         0.         0.          0.       
 delvto              0.         0.         0.          0.       
 mulu0               1.0000     1.0000     1.0000      1.0000   
 delk1               0.         0.         0.          0.       
 delnfct             0.         0.         0.          0.       
 deltox              0.         0.         0.          0.       
 sa                  0.         0.         0.          0.       
 sb                  0.         0.         0.          0.       
 sd                  0.         0.         0.          0.       
 saeff               0.         0.         0.          0.       
 sbeff               0.         0.         0.          0.       
  
  
                                                                
 element name       18:m2      18:m0       18:m3      18:m1     
 drain               2:net10    2:net10    18:mid_a    2:net10  
 gate                0:sae      0:block0    0:sae      0:block0 
 source              0:vdd!     0:vdd!      0:0       18:mid_a  
 bulk                0:vdd!     0:vdd!      0:0        0:0      
 model               0:pmos     0:pmos      0:nmos     0:nmos   
 w eff             166.0000n  166.0000n   166.0000n  166.0000n  
 l eff              29.0000n   29.0000n    29.0000n   29.0000n  
 rd eff              0.         0.          0.         0.       
 rs eff              0.         0.          0.         0.       
 cdsat              15.1073a   15.1073a    15.1073a   15.1073a  
 cssat              15.1073a   15.1073a    15.1073a   15.1073a  
 capbd             223.4243a  223.4243a   223.4243a  223.4243a  
 capbs             188.2947a  188.2947a   188.2947a  188.2947a  
 temp               25.0000    25.0000     25.0000    25.0000   
 aic                                                            
 nf                  1.0000     1.0000      1.0000     1.0000   
 min                 0.         0.          0.         0.       
 rbdb               15.0000    15.0000     15.0000    15.0000   
 rbsb               15.0000    15.0000     15.0000    15.0000   
 rbpb                5.0000     5.0000      5.0000     5.0000   
 rbps               15.0000    15.0000     15.0000    15.0000   
 rbpd               15.0000    15.0000     15.0000    15.0000   
 trnqsmod            0.         0.          0.         0.       
 acnqsmod            0.         0.          0.         0.       
 rbodymod            1.0000     1.0000      1.0000     1.0000   
 rgatemod            1.0000     1.0000      1.0000     1.0000   
 geomod              0.         0.          0.         0.       
 rgeomod             0.         0.          0.         0.       
 delvto              0.         0.          0.         0.       
 mulu0               1.0000     1.0000      1.0000     1.0000   
 delk1               0.         0.          0.         0.       
 delnfct             0.         0.          0.         0.       
 deltox              0.         0.          0.         0.       
 sa                  0.         0.          0.         0.       
 sb                  0.         0.          0.         0.       
 sd                  0.         0.          0.         0.       
 saeff               0.         0.          0.         0.       
 sbeff               0.         0.          0.         0.       
  
  
                                                                        
 element name       19:m2         19:m0         19:m3       19:m1       
 drain               0:b0sel_b0    0:b0sel_b0   19:mid_a     0:b0sel_b0 
 gate                0:block0      2:net8        0:block0    2:net8     
 source              0:vdd!        0:vdd!        0:0        19:mid_a    
 bulk                0:vdd!        0:vdd!        0:0         0:0        
 model               0:pmos        0:pmos        0:nmos      0:nmos     
 w eff             166.0000n     166.0000n     166.0000n   166.0000n    
[...]
  cbtot      308.5089a    587.1624a    308.5089a    303.2542a    298.0448a
  cgs         93.3391a    110.1534a     93.3391a     40.0143a     93.0748a
  cgd         79.1570a     70.6342a     79.1570a     35.6971a     77.6354a



 subckt     xdecoder.x   xdecoder.x   xdecoder.x   xdecoder.x   xdecoder.x
 element  121:m1       121:m7       121:m6       121:m0       122:m10     
 model      0:nmos       0:pmos       0:pmos       0:pmos       0:nmos    
 region         Cutoff       Linear       Cutoff       Linear       Cutoff
  id         112.2379p   -599.3204p    -37.6135f   -599.3204p    366.5526p
  ibs       -105.7652f   -5.835e-25      0.        -5.835e-25    1.689e-26
  ibd         -1.0000p      3.4058a      3.4058a      3.4058a    -18.0090f
  vgs       -105.7331m   -999.9811m      0.        -999.9811m     18.9202u
  vds        894.2446m     -3.4034u     -3.4034u     -3.4034u     18.0023m
  vbs       -105.7520m      0.           0.           0.           0.     
  vth        334.4704m   -310.7631m   -310.7631m   -310.7631m    369.3675m
  vdsat       40.0424m   -503.9526m    -46.2174m   -503.9526m     40.2303m
  vod       -440.2035m   -689.2180m    310.7631m   -689.2180m   -369.3486m
  beta         2.9349m    317.5725u    367.4759u    317.5725u      2.8100m
  gam eff    441.0000m    394.0000m    394.0000m    394.0000m    441.0000m
  gm           2.9465n    508.5385p    987.8476f    508.5385p      9.3772n
  gds        219.8566p    176.0965u     11.0515n    176.0965u     15.0891n
  gmb        846.8509p    204.7471p    237.0508f    204.7471p      2.7875n
  cdtot      149.9388a    378.1371a    258.8318a    378.1371a    194.7703a
  cgtot       78.9704a    254.9590a    136.6818a    254.9590a     96.8476a
  cstot      165.6914a    257.9498a    228.0318a    257.9498a    174.4335a
  cbtot      271.7759a    393.4434a    393.7700a    393.4434a    307.4722a
  cgs         35.6977a    143.0524a     57.4452a    143.0524a     40.0142a
  cgd         25.7150a    112.5631a     57.4430a    112.5631a     39.2758a



 subckt     xdecoder.x   xdecoder.x   xdecoder.x   xdecoder.x   xdecoder.x
 element  122:m9       122:m1       122:m7       122:m6       122:m0      
 model      0:nmos       0:nmos       0:pmos       0:pmos       0:pmos    
 region         Cutoff       Cutoff       Linear       Linear       Linear
  id         366.5835p    366.6397p   -483.2494p   -483.2572p   -483.2494p
  ibs        -18.0090f    -72.5013f   -5.835e-25   -5.837e-25   -5.835e-25
  ibd        -72.5013f     -1.0000p      2.7462a      2.7462a      2.7462a
  vgs        -18.0023m    -72.4697m   -999.9811m     -1.0000    -999.9811m
  vds         54.4864m    927.5086m     -2.7442u     -2.7442u     -2.7442u
  vbs        -18.0023m    -72.4887m      0.           0.           0.     
  vth        371.2105m    324.5198m   -310.7632m   -310.7632m   -310.7632m
  vdsat       40.2520m     39.9627m   -503.9526m   -503.9636m   -503.9526m
  vod       -389.2128m   -396.9895m   -689.2179m   -689.2368m   -689.2179m
  beta         2.8035m      2.9711m    317.5725u    317.5698u    317.5725u
  gam eff    441.0000m    441.0000m    394.0000m    394.0000m    394.0000m
  gm           9.4361n      9.5370n    410.0490p    410.0380p    410.0490p
  gds          2.2131n    711.7078p    176.0967u    176.0995u    176.0967u
  gmb          2.7945n      2.7321n    165.0935p    165.0919p    165.0935p
  cdtot      189.8398a    149.9388a    378.1373a    378.1379a    378.1373a
  cgtot       93.8525a     80.2929a    254.9590a    254.9593a    254.9590a
  cstot      172.8988a    168.3430a    257.9497a    257.9497a    257.9497a
  cbtot      304.0025a    273.1049a    393.4435a    393.4435a    393.4435a
  cgs         39.2759a     37.0203a    143.0523a    143.0525a    143.0523a
  cgd         37.0187a     25.7149a    112.5632a    112.5634a    112.5632a



 subckt     xdecoder.x   xdecoder.x   xdecoder.x   xdecoder.x   xdecoder.x
 element  123:m10      123:m9       123:m1       123:m7       123:m6      
 model      0:nmos       0:nmos       0:nmos       0:pmos       0:pmos    
 region         Cutoff       Linear       Cutoff       Linear       Cutoff
  id         801.4140p    456.8264p    112.2379p   -599.3204p    -37.6135f
  ibs        9.921e-26   -105.7641f   -105.7652f   -5.835e-25      0.     
  ibd       -105.7641f   -105.7652f     -1.0000p      3.4058a      3.4058a
  vgs         18.9202u    894.2491m   -105.7331m   -999.9811m      0.     
  vds        105.7509m      1.1043u    894.2446m     -3.4034u     -3.4034u
  vbs          0.        -105.7509m   -105.7520m      0.           0.     
  vth        363.3809m    395.4732m    334.4704m   -310.7631m   -310.7631m
  vdsat       40.1909m    280.5649m     40.0424m   -503.9526m    -46.2174m
  vod       -363.3620m    498.7759m   -440.2035m   -689.2180m    310.7631m
  beta         2.8312m      2.2448m      2.9349m    317.5725u    367.4759u
  gam eff    441.0000m    441.0000m    441.0000m    394.0000m    394.0000m
  gm          20.4844n    288.5939p      2.9465n    508.5385p    987.8476f
  gds          2.0281n    413.6738u    219.8566p    176.0965u     11.0515n
  gmb          6.0417n    122.3077p    846.8509p    204.7471p    237.0508f
  cdtot      186.9736a    271.7384a    149.9388a    378.1371a    258.8318a
  cgtot       93.2690a    170.2722a     78.9704a    254.9590a    136.6818a
  cstot      174.4336a    188.8754a    165.6914a    257.9498a    228.0318a
  cbtot      303.2542a    298.0448a    271.7759a    393.4434a    393.7700a
  cgs         40.0143a     93.0748a     35.6977a    143.0524a     57.4452a
  cgd         35.6971a     77.6354a     25.7150a    112.5631a     57.4430a



 subckt     xdecoder.x   xdecoder.x   xdecoder.x   xdecoder.x   xdecoder.x
 element  123:m0       124:m10      124:m9       124:m1       124:m7      
 model      0:pmos       0:nmos       0:nmos       0:nmos       0:pmos    
 region         Linear       Cutoff       Cutoff       Cutoff       Linear
  id        -599.3204p    366.5526p    366.5835p    366.6397p   -483.2494p
  ibs       -5.835e-25    1.689e-26    -18.0090f    -72.5013f   -5.835e-25
  ibd          3.4058a    -18.0090f    -72.5013f     -1.0000p      2.7462a
  vgs       -999.9811m     18.9202u    -18.0023m    -72.4697m   -999.9811m
  vds         -3.4034u     18.0023m     54.4864m    927.5086m     -2.7442u
  vbs          0.           0.         -18.0023m    -72.4887m      0.     
  vth       -310.7631m    369.3675m    371.2105m    324.5198m   -310.7632m
  vdsat     -503.9526m     40.2303m     40.2520m     39.9627m   -503.9526m
  vod       -689.2180m   -369.3486m   -389.2128m   -396.9895m   -689.2179m
  beta       317.5725u      2.8100m      2.8035m      2.9711m    317.5725u
  gam eff    394.0000m    441.0000m    441.0000m    441.0000m    394.0000m
  gm         508.5385p      9.3772n      9.4361n      9.5370n    410.0490p
  gds        176.0965u     15.0891n      2.2131n    711.7078p    176.0967u
  gmb        204.7471p      2.7875n      2.7945n      2.7321n    165.0935p
  cdtot      378.1371a    194.7703a    189.8398a    149.9388a    378.1373a
  cgtot      254.9590a     96.8476a     93.8525a     80.2929a    254.9590a
  cstot      257.9498a    174.4335a    172.8988a    168.3430a    257.9497a
  cbtot      393.4434a    307.4722a    304.0025a    273.1049a    393.4435a
  cgs        143.0524a     40.0142a     39.2759a     37.0203a    143.0523a
  cgd        112.5631a     39.2758a     37.0187a     25.7149a    112.5632a



 subckt     xdecoder.x   xdecoder.x   xclk_gen.x   xclk_gen.x   xclk_gen.x
 element  124:m6       124:m0       128:m_0      128:m_1      129:m_0     
 model      0:pmos       0:pmos       0:nmos       0:pmos       0:nmos    
 region         Linear       Linear       Cutoff       Linear       Linear
  id        -483.2572p   -483.2494p      7.6210n    -16.0612n     54.8624n
  ibs       -5.837e-25   -5.835e-25    9.392e-25   -2.103e-24    4.072e-24
  ibd          2.7462a      2.7462a   -999.9954f     25.6407a    -75.7425a
  vgs         -1.0000    -999.9811m      0.          -1.0000     999.9744m
  vds         -2.7442u     -2.7442u    999.9744m    -25.5802u     18.9202u
  vbs          0.           0.           0.           0.           0.     
  vth       -310.7632m   -310.7632m    302.3784m   -310.7612m    370.5944m
  vdsat     -503.9636m   -503.9526m     39.8318m   -504.5937m    337.0862m
  vod       -689.2368m   -689.2179m   -302.3784m   -689.2388m    629.3800m
  beta       317.5698u    317.5725u      5.0666m      1.1424m     14.4096m
  gam eff    394.0000m    394.0000m    441.0000m    394.0000m    441.0000m
  gm         410.0380p    410.0490p    191.9183n     13.5110n     21.3085n
  gds        176.0995u    176.0967u     14.3449n    627.8611u      2.8996m
  gmb        165.0919p    165.0935p     54.4515n      5.4389n     11.2233n
  cdtot      378.1379a    378.1373a    220.4434a      1.2194f      1.7195f
  cgtot      254.9593a    254.9590a    137.7687a    915.2162a      1.1369f
  cstot      257.9497a    257.9497a    255.0966a    792.2893a      1.1430f
  cbtot      393.4435a    393.4435a    395.0850a      1.1369f      1.7655f
  cgs        143.0525a    143.0523a     66.4274a    514.6013a    619.7720a
  cgd        112.5634a    112.5632a     42.6865a    404.9048a    525.6006a



 subckt     xclk_gen.x   xclk_gen.x   xclk_gen.x   xclk_gen.x   xclk_gen.x
 element  129:m_1      130:m_0      130:m_1      131:m_0      131:m_1     
 model      0:pmos       0:nmos       0:pmos       0:nmos       0:pmos    
 region         Cutoff       Cutoff       Linear       Linear       Cutoff
  id         -57.2547n    121.9947n   -257.0380n    986.5605n   -916.0696n
  ibs       -3.765e-24    1.503e-23   -3.364e-23    6.516e-23   -6.024e-23
  ibd          4.0002p    -15.9999p    410.3531a     -1.3620f     64.0026p
  vgs        -25.5802u     18.9202u   -999.9811m    999.9744m    -25.5865u
  vds       -999.9811m    999.9744m    -25.5865u     21.2646u   -999.9787m
  vbs          0.           0.           0.           0.           0.     
  vth       -225.6986m    302.3784m   -310.7612m    370.5942m   -225.6988m
  vdsat      -46.2016m     39.8318m   -504.5826m    337.0863m    -46.2016m
  vod        225.6730m   -302.3595m   -689.2199m    629.3802m    225.6732m
  beta         6.0227m     81.0664m     18.2781m    230.5529m     96.3633m
  gam eff    394.0000m    441.0000m    394.0000m    441.0000m    394.0000m
  gm           1.4521u      3.0721u    216.2348n    383.1837n     23.2334u
  gds        139.2593n    229.6257n     10.0456m     46.3934m      2.2281u
  gmb        326.1537n    871.6237n     87.0444n    201.8231n      5.2184u
  cdtot        2.3833f      3.5271f     19.5104f     27.5114f     38.1333f
  cgtot        1.6630f      2.2043f     14.6434f     18.1904f     26.6086f
  cstot        2.7389f      4.0816f     12.6766f     18.2873f     43.8225f
  cbtot        4.0710f      6.3214f     18.1907f     28.2486f     65.1361f
  cgs        826.9676a      1.0629f      8.2336f      9.9164f     13.2315f
  cgd        530.2694a    682.9857a      6.4785f      8.4096f      8.4843f



 subckt     xa0_gen.xg   xa0_gen.xg   xa0_gen.xg   xa0_gen.xg   xa0_gen.xg
 element  132:m_0      132:m_1      133:m_0      133:m_1      134:m_0     
 model      0:nmos       0:pmos       0:nmos       0:pmos       0:nmos    
 region         Cutoff       Linear       Linear       Cutoff       Cutoff
  id           7.6210n    -16.0612n     54.8624n    -57.2547n    121.9947n
  ibs        9.392e-25   -2.103e-24    4.072e-24   -3.765e-24    1.503e-23
  ibd       -999.9954f     25.6407a    -75.7425a      4.0002p    -15.9999p
  vgs          0.          -1.0000     999.9744m    -25.5802u     18.9202u
  vds        999.9744m    -25.5802u     18.9202u   -999.9811m    999.9744m
  vbs          0.           0.           0.           0.           0.     
  vth        302.3784m   -310.7612m    370.5944m   -225.6986m    302.3784m
  vdsat       39.8318m   -504.5937m    337.0862m    -46.2016m     39.8318m
  vod       -302.3784m   -689.2388m    629.3800m    225.6730m   -302.3595m
  beta         5.0666m      1.1424m     14.4096m      6.0227m     81.0664m
  gam eff    441.0000m    394.0000m    441.0000m    394.0000m    441.0000m
  gm         191.9183n     13.5110n     21.3085n      1.4521u      3.0721u
  gds         14.3449n    627.8611u      2.8996m    139.2593n    229.6257n
  gmb         54.4515n      5.4389n     11.2233n    326.1537n    871.6237n
  cdtot      220.4434a      1.2194f      1.7195f      2.3833f      3.5271f
  cgtot      137.7687a    915.2162a      1.1369f      1.6630f      2.2043f
  cstot      255.0966a    792.2893a      1.1430f      2.7389f      4.0816f
  cbtot      395.0850a      1.1369f      1.7655f      4.0710f      6.3214f
  cgs         66.4274a    514.6013a    619.7720a    826.9676a      1.0629f
  cgd         42.6865a    404.9048a    525.6006a    530.2694a    682.9857a



 subckt     xa0_gen.xg   xa0_gen.xg   xa0_gen.xg   xa255_gen.   xa255_gen.
 element  134:m_1      135:m_0      135:m_1      136:m_0      136:m_1     
 model      0:pmos       0:nmos       0:pmos       0:nmos       0:pmos    
 region         Linear       Linear       Cutoff       Cutoff       Linear
  id        -257.0380n    986.5605n   -916.0696n      7.6210n    -16.0612n
  ibs       -3.364e-23    6.516e-23   -6.024e-23    9.392e-25   -2.103e-24
  ibd        410.3531a     -1.3620f     64.0026p   -999.9954f     25.6407a
  vgs       -999.9811m    999.9744m    -25.5865u      0.          -1.0000 
  vds        -25.5865u     21.2646u   -999.9787m    999.9744m    -25.5802u
  vbs          0.           0.           0.           0.           0.     
  vth       -310.7612m    370.5942m   -225.6988m    302.3784m   -310.7612m
  vdsat     -504.5826m    337.0863m    -46.2016m     39.8318m   -504.5937m
  vod       -689.2199m    629.3802m    225.6732m   -302.3784m   -689.2388m
  beta        18.2781m    230.5529m     96.3633m      5.0666m      1.1424m
  gam eff    394.0000m    441.0000m    394.0000m    441.0000m    394.0000m
  gm         216.2348n    383.1837n     23.2334u    191.9183n     13.5110n
  gds         10.0456m     46.3934m      2.2281u     14.3449n    627.8611u
  gmb         87.0444n    201.8231n      5.2184u     54.4515n      5.4389n
  cdtot       19.5104f     27.5114f     38.1333f    220.4434a      1.2194f
  cgtot       14.6434f     18.1904f     26.6086f    137.7687a    915.2162a
  cstot       12.6766f     18.2873f     43.8225f    255.0966a    792.2893a
  cbtot       18.1907f     28.2486f     65.1361f    395.0850a      1.1369f
  cgs          8.2336f      9.9164f     13.2315f     66.4274a    514.6013a
  cgd          6.4785f      8.4096f      8.4843f     42.6865a    404.9048a



 subckt     xa255_gen.   xa255_gen.   xa255_gen.   xa255_gen.   xa255_gen.
 element  137:m_0      137:m_1      138:m_0      138:m_1      139:m_0     
 model      0:nmos       0:pmos       0:nmos       0:pmos       0:nmos    
 region         Linear       Cutoff       Cutoff       Linear       Linear
  id          54.8624n    -57.2547n    121.9947n   -257.0380n    986.5605n
  ibs        4.072e-24   -3.765e-24    1.503e-23   -3.364e-23    6.516e-23
  ibd        -75.7425a      4.0002p    -15.9999p    410.3531a     -1.3620f
  vgs        999.9744m    -25.5802u     18.9202u   -999.9811m    999.9744m
  vds         18.9202u   -999.9811m    999.9744m    -25.5865u     21.2646u
  vbs          0.           0.           0.           0.           0.     
  vth        370.5944m   -225.6986m    302.3784m   -310.7612m    370.5942m
  vdsat      337.0862m    -46.2016m     39.8318m   -504.5826m    337.0863m
  vod        629.3800m    225.6730m   -302.3595m   -689.2199m    629.3802m
  beta        14.4096m      6.0227m     81.0664m     18.2781m    230.5529m
  gam eff    441.0000m    394.0000m    441.0000m    394.0000m    441.0000m
  gm          21.3085n      1.4521u      3.0721u    216.2348n    383.1837n
  gds          2.8996m    139.2593n    229.6257n     10.0456m     46.3934m
  gmb         11.2233n    326.1537n    871.6237n     87.0444n    201.8231n
  cdtot        1.7195f      2.3833f      3.5271f     19.5104f     27.5114f
  cgtot        1.1369f      1.6630f      2.2043f     14.6434f     18.1904f
  cstot        1.1430f      2.7389f      4.0816f     12.6766f     18.2873f
  cbtot        1.7655f      4.0710f      6.3214f     18.1907f     28.2486f
  cgs        619.7720a    826.9676a      1.0629f      8.2336f      9.9164f
  cgd        525.6006a    530.2694a    682.9857a      6.4785f      8.4096f



 subckt     xa255_gen.
 element  139:m_1     
 model      0:pmos    
 region         Cutoff
  id        -916.0696n
  ibs       -6.024e-23
  ibd         64.0026p
  vgs        -25.5865u
  vds       -999.9787m
  vbs          0.     
  vth       -225.6988m
  vdsat      -46.2016m
  vod        225.6732m
  beta        96.3633m
  gam eff    394.0000m
  gm          23.2334u
  gds          2.2281u
  gmb          5.2184u
  cdtot       38.1333f
  cgtot       26.6086f
  cstot       43.8225f
  cbtot       65.1361f
  cgs         13.2315f
  cgd          8.4843f



 ******  
 part 2

  ******  transient analysis tnom=  25.000 temp=  27.000 *****
 wl0_rise= 712.9700p  targ=   1.2811n   trig= 568.1180p
 wl0_width= 449.6670p  targ=   1.3382n   trig= 888.4905p
 wl0_fall=-302.3808p  targ= 765.9499p   trig=   1.0683n
 wl1_rise= 712.7546p  targ=   2.2808n   trig=   1.5681n
 wl1_fall=-302.2848p  targ=   1.7661n   trig=   2.0683n
 bl0_split= 143.9297m    at=   1.1979n
             from= 500.0000p    to=   1.5000n
 bl1_split=-138.2717u    at= 692.9654p
             from= 500.0000p    to=   1.5000n
 bl_pc_overlap= 555.9499p  targ= 765.9499p   trig= 210.0000p
 bl63_pc_overlap= 556.0523p  targ=   1.7661n   trig=   1.2100n
 clk-out0= 454.3244p  targ=   1.0224n   trig= 568.1180p
 precharge=   4.0426n  targ=   5.2526n   trig=   1.2100n
 sae-out0=  97.4424p  targ=   1.0224n   trig= 925.0000p
 out0-width= 366.8017p  targ=   1.3892n   trig=   1.0224n
 idsat_avg=   5.3259n  from=   2.0000n     to=   3.0000n
 write_core_power=  -1.2149m  from=   2.0000n     to=   3.0000n
 vcell_power=-406.2842u  from=   2.0000n     to=   3.0000n
 mem_core_power=  -1.6212m

          ***** job concluded
1****** HSPICE -- F-2011.09-SP2 32-BIT (Feb 27 2012) linux ******               
 ******  
 part 2

  ******  job statistics summary tnom=  25.000 temp=  27.000 *****
  
  
 ******  Machine Information  ******
 CPU:
 model name	: Intel(R) Core(TM)2 Duo CPU     E8500  @ 3.16GHz
 cpu MHz	: 3158.603
  
 OS:
 Linux version 3.2.0-30-generic (buildd@batsu) (gcc version 4.6.3 (Ubuntu/Linaro
  4.6.3-1ubuntu5) ) #48-Ubuntu SMP Fri Aug 24 16:52:48 UTC 2012


  ******  HSPICE Threads Information  ******

  Command Line Threads Count :     1
  Available CPU Count        :     2
  Actual Threads Count       :     1


  ******  Circuit Statistics  ******
  # nodes       =    1973 # elements   =     535
  # resistors   =       0 # capacitors =      54 # inductors   =       0
  # mutual_inds =       0 # vccs       =       0 # vcvs        =       3
  # cccs        =       6 # ccvs       =       0 # volt_srcs   =      36
  # curr_srcs   =       0 # diodes     =       0 # bjts        =       0
  # jfets       =       0 # mosfets    =     436 # U elements  =       0
  # T elements  =       0 # W elements =       0 # B elements  =       0
  # S elements  =       0 # P elements =       0 # va device   =       0
  # vector_srcs =       0


  ******  Runtime Statistics (seconds)  ******

  analysis           time    # points   tot. iter  conv.iter
  op point           1.14           1         426
  transient         45.34       60001       76916        9255 rev=      1323
  readin             0.02
  errchk             0.08
  setup              0.02
  output             0.00


           peak memory used         93.28 megabytes
           total cpu time           46.58 seconds
           total elapsed time       47.57 seconds
           job started at     12:35:52 03/14/2013
           job ended   at     12:36:40 03/14/2013


 lic: Release hspice token(s) 
