$DATA1 SOURCE='HSPICE' VERSION='F-2011.09-SP2 32-BIT'
.TITLE 'part 2'
 wl0_rise         wl0_width        wl0_fall         wl1_rise          
 wl1_fall         bl0_split        bl1_split        bl_pc_overlap     
 bl63_pc_overlap  temper           alter#            
  1.522e-10        4.929e-10        1.448e-10        1.522e-10        
  1.448e-10          0.4183           0.4109         1.448e-10        
  1.448e-10         27.0000        1                 
