$DATA1 SOURCE='HSPICE' VERSION='F-2011.09-SP2 32-BIT'
.TITLE 'part 2'
 wl0_rise         wl0_width        wl0_fall         wl1_rise          
 wl1_fall         bl0_split        bl1_split        bl_pc_overlap     
 bl63_pc_overlap  clk-out0         temper           alter#            
  1.620e-10        4.953e-10        1.571e-10        1.621e-10        
  1.573e-10          0.2678           0.2553         1.200e-09        
  1.200e-09        2.523e-10         27.0000        1                 
