$DATA1 SOURCE='HSPICE' VERSION='F-2011.09-SP2 32-BIT'
.TITLE 'part 2'
 wl0_rise         wl0_width        wl0_fall         wl1_rise          
 wl1_fall         bl0_split        bl1_split        bl_pc_overlap     
 bl63_pc_overlap  temper           alter#            
  2.625e-10        5.171e-10        2.794e-10        2.626e-10        
  2.794e-10          0.3432           0.3305         2.794e-10        
  2.794e-10         27.0000        1                 
