Using: /usr/class/ee/synopsys/hspice/F-2011.09-SP2/hspice/linux/hspice part2_decoder_Blocked_Slowed_Switched_WR_Voltages.hsp
 ****** HSPICE -- F-2011.09-SP2 32-BIT (Feb 27 2012) linux ******               
  Copyright (C) 2011 Synopsys, Inc. All Rights Reserved.                        
  Unpublished-rights reserved under US copyright laws.
  This program is protected by law and is subject to the
  terms and conditions of the license agreement from Synopsys.
  Use of this program is your acceptance to be bound by the
  license agreement. HSPICE is the trademark of Synopsys, Inc.
  Input File: part2_decoder_Blocked_Slowed_Switched_WR_Voltages.hsp             
  Command line options: part2_decoder_Blocked_Slowed_Switched_WR_Voltages.hsp
 lic:  
 lic: FLEXlm: v10.8 
 lic: USER:   veharvey             HOSTNAME: myth16 
 lic: HOSTID: 001ec92f9f2b         PID:      20772 
 lic: Using FLEXlm license file: 
 lic: 27000@cadlic0.stanford.edu 
 lic: Checkout 1 hspice 
 lic: License/Maintenance for hspice will expire on 16-nov-2013/2013.03 
 lic: 3(in_use)/100(total) FLOATING license(s) on SERVER cadlic0.stanford.edu 
 lic:   
 Init: read install configuration file: /usr/class/ee/synopsys/hspice/F-2011.09-SP2/hspice/meta.cfg

 **warning**  runlvl smaller than 5, reset to 5  when accurate turned on
  **warning** (/afs/ir/users/v/e/veharvey/ee313/netlist/projectPart2.testrig_blocked_wordline_4.ckt:119) No independent source value specified. Reset to zero.
 scientific notation:
 a=10**-18  f=10**-15  p=10**-12  n=10**-9  u=10**-6
 m=10**-3   k=10**3    x=10**6    g=10**9 

 **warning**  runlvl smaller than 5, reset to 5  when accurate turned on
1****** HSPICE -- F-2011.09-SP2 32-BIT (Feb 27 2012) linux ******               
 ******  
 part 2

  ******  circuit name directory
 circuit number to circuit name directory
   number circuitname                     definition         multiplier
        0 main circuit
        1 xsense63_in.                    blocked_sense_inputs
                                                                 1.00 
        2 xsense0_in.                     blocked_sense_inputs
                                                                 1.00 
        3 xblock_decoder.                 block_decoder      1.00 
        4 xarray.                         array_blocked_wordline_4
                                                                 1.00 
        5 xdecoder.                       decoder            1.00 
        6 xsense63.                       sense              1.00 
        7 xsense0.                        sense              1.00 
        8 xvwl_mux.                       vwl_mux_array      1.00 
        9 xclk_gen.                       clk_gen            1.00 
       10 xa0_gen.                        a0_gen             1.00 
       11 xa255_gen.                      a255_gen           1.00 
       12 xsense63_in.xu5.                inv_pcell_0        1.00 
       13 xsense63_in.xu0.                inv_pcell_0        1.00 
       14 xsense63_in.xu3.                nand_pcell_1       1.00 
       15 xsense63_in.xu2.                nand_pcell_1       1.00 
       16 xsense0_in.xu5.                 inv_pcell_0        1.00 
       17 xsense0_in.xu0.                 inv_pcell_0        1.00 
       18 xsense0_in.xu3.                 nand_pcell_1       1.00 
       19 xsense0_in.xu2.                 nand_pcell_1       1.00 
       20 xblock_decoder.xu17.            inv_pcell_2        1.00 
       21 xblock_decoder.xu16.            inv_pcell_2        1.00 
       22 xblock_decoder.xu15.            inv_pcell_2        1.00 
       23 xblock_decoder.xu14.            inv_pcell_2        1.00 
       24 xblock_decoder.xu9.             inv_pcell_2        1.00 
       25 xblock_decoder.xu6.             inv_pcell_2        1.00 
       26 xblock_decoder.xu5.             inv_pcell_2        1.00 
       27 xblock_decoder.xu2.             inv_pcell_2        1.00 
       28 xblock_decoder.xu13.            nand_pcell_3       1.00 
       29 xblock_decoder.xu12.            nand_pcell_3       1.00 
       30 xblock_decoder.xu11.            nand_pcell_3       1.00 
       31 xblock_decoder.xu10.            nand_pcell_3       1.00 
       32 xblock_decoder.xu8.             nand_pcell_3       1.00 
       33 xblock_decoder.xu3.             nand_pcell_3       1.00 
       34 xblock_decoder.xu4.             nand_pcell_3       1.00 
       35 xblock_decoder.xu7.             nand_pcell_3       1.00 
       36 xarray.xmctr.                   mc                 1.00 
       37 xarray.xmcmr.                   mc               254.00 
       38 xarray.xmcbr.                   mc                 1.00 
       39 xarray.xmctb3dum.               mc                63.00 
       40 xarray.xmcmb3dum.               mc                16.00k
       41 xarray.xmcbb3dum.               mc                63.00 
       42 xarray.xmcbb2dum.               mc                64.00 
       43 xarray.xmctb2dum.               mc                64.00 
       44 xarray.xmcmb2dum.               mc                16.26k
       45 xarray.xmctb1dum.               mc                64.00 
       46 xarray.xmcbb0dum.               mc                63.00 
       47 xarray.xmcbl.                   mc                 1.00 
       48 xarray.xmcml.                   mc               254.00 
       49 xarray.xmcmb0dum.               mc                16.00k
       50 xarray.xmcmb1dum.               mc                16.26k
       51 xarray.xmcbb1dum.               mc                64.00 
       52 xarray.xmctb0dum.               mc                63.00 
       53 xarray.xmctl.                   mc                 1.00 
       54 xarray.xwriter.                 write              1.00 
       55 xarray.xwriteb3dum.             write             63.00 
       56 xarray.xwriteb1dum.             write             64.00 
       57 xarray.xwriteb2dum.             write             64.00 
       58 xarray.xwriteb0dum.             write             63.00 
       59 xarray.xwritel.                 write              1.00 
       60 xdecoder.xpredecoder416.        predecode_416      1.00 
       61 xdecoder.xdecoder_stage.        decode_stage       1.00 
       62 xdecoder.xpredecoder24.         predecode_24       1.00 
       63 xsense63.xu1.                   inv_pcell_11       1.00 
       64 xsense63.xu0.                   inv_pcell_11       1.00 
       65 xsense63.xu3.                   inv_pcell_12       1.00 
       66 xsense63.xu2.                   inv_pcell_12       1.00 
       67 xsense0.xu1.                    inv_pcell_11       1.00 
       68 xsense0.xu0.                    inv_pcell_11       1.00 
       69 xsense0.xu3.                    inv_pcell_12       1.00 
       70 xsense0.xu2.                    inv_pcell_12       1.00 
       71 xvwl_mux.xi7.                   read_write_vwl_mux
                                                                 1.00 
       72 xvwl_mux.xi6.                   read_write_vwl_mux
                                                                 1.00 
       73 xvwl_mux.xi5.                   read_write_vwl_mux
                                                                 1.00 
       74 xvwl_mux.xi4.                   read_write_vwl_mux
                                                                 1.00 
       75 xvwl_mux.xi3.                   read_write_vwl_mux
                                                                 1.00 
       76 xvwl_mux.xi2.                   read_write_vwl_mux
                                                                 1.00 
       77 xvwl_mux.xi1.                   read_write_vwl_mux
                                                                 1.00 
       78 xvwl_mux.xi0.                   read_write_vwl_mux
                                                                 1.00 
       79 xclk_gen.xgen.                  signal_gen         1.00 
       80 xa0_gen.xgen.                   signal_gen         1.00 
       81 xa255_gen.xgen.                 signal_gen         1.00 
       82 xarray.xwriter.xu0.             inv_pcell_01       1.00 
       83 xarray.xwriter.xu2.             inv_pcell_23       1.00 
       84 xarray.xwriter.xu1.             inv_pcell_23       1.00 
       85 xarray.xwriteb3dum.xu0.         inv_pcell_01      63.00 
       86 xarray.xwriteb3dum.xu2.         inv_pcell_23      63.00 
       87 xarray.xwriteb3dum.xu1.         inv_pcell_23      63.00 
       88 xarray.xwriteb1dum.xu0.         inv_pcell_01      64.00 
       89 xarray.xwriteb1dum.xu2.         inv_pcell_23      64.00 
       90 xarray.xwriteb1dum.xu1.         inv_pcell_23      64.00 
       91 xarray.xwriteb2dum.xu0.         inv_pcell_01      64.00 
       92 xarray.xwriteb2dum.xu2.         inv_pcell_23      64.00 
       93 xarray.xwriteb2dum.xu1.         inv_pcell_23      64.00 
       94 xarray.xwriteb0dum.xu0.         inv_pcell_01      63.00 
       95 xarray.xwriteb0dum.xu2.         inv_pcell_23      63.00 
       96 xarray.xwriteb0dum.xu1.         inv_pcell_23      63.00 
       97 xarray.xwritel.xu0.             inv_pcell_01       1.00 
       98 xarray.xwritel.xu2.             inv_pcell_23       1.00 
       99 xarray.xwritel.xu1.             inv_pcell_23       1.00 
      100 xdecoder.xpredecoder416.xi16.   nand_pcell_4       1.00 
      101 xdecoder.xpredecoder416.xi15.   nand_pcell_4       1.00 
      102 xdecoder.xpredecoder416.xi17.   nand_pcell_4       1.00 
      103 xdecoder.xpredecoder416.xi18.   nand_pcell_4       1.00 
      104 xdecoder.xpredecoder416.xu15.   inv_pcell_5        1.00 
      105 xdecoder.xpredecoder416.xu14.   inv_pcell_5        1.00 
      106 xdecoder.xpredecoder416.xu13.   inv_pcell_5        1.00 
      107 xdecoder.xpredecoder416.xu12.   inv_pcell_5        1.00 
      108 xdecoder.xpredecoder416.xu11.   inv_pcell_6        1.00 
      109 xdecoder.xpredecoder416.xu10.   inv_pcell_6        1.00 
      110 xdecoder.xpredecoder416.xu9.    inv_pcell_6        1.00 
      111 xdecoder.xpredecoder416.xu8.    inv_pcell_6        1.00 
      112 xdecoder.xpredecoder416.xu0.    inv_pcell_7        1.00 
      113 xdecoder.xpredecoder416.xu1.    inv_pcell_7        1.00 
      114 xdecoder.xpredecoder416.xu2.    inv_pcell_7        1.00 
      115 xdecoder.xpredecoder416.xu3.    inv_pcell_7        1.00 
      116 xdecoder.xdecoder_stage.xu3.    nand_pcell_8       1.00 
      117 xdecoder.xdecoder_stage.xu2.    nand_pcell_8       1.00 
      118 xdecoder.xdecoder_stage.xu1.    nand_pcell_8       1.00 
      119 xdecoder.xdecoder_stage.xu0.    nand_pcell_8       1.00 
      120 xdecoder.xdecoder_stage.xu8.    inv_pcell_9        1.00 
      121 xdecoder.xdecoder_stage.xu7.    inv_pcell_9        1.00 
      122 xdecoder.xdecoder_stage.xu6.    inv_pcell_9        1.00 
      123 xdecoder.xdecoder_stage.xu5.    inv_pcell_9        1.00 
      124 xdecoder.xpredecoder24.xu3.     inv_pcell_10       1.00 
      125 xdecoder.xpredecoder24.xu2.     inv_pcell_10       1.00 
      126 xdecoder.xpredecoder24.xu1.     inv_pcell_10       1.00 
      127 xdecoder.xpredecoder24.xu0.     inv_pcell_10       1.00 
      128 xdecoder.xpredecoder24.xi36.    nand3              1.00 
      129 xdecoder.xpredecoder24.xi37.    nand3              1.00 
      130 xdecoder.xpredecoder24.xi38.    nand3              1.00 
      131 xdecoder.xpredecoder24.xi39.    nand3              1.00 
      132 xvwl_mux.xi7.xu1.               inv_pcell_0        1.00 
      133 xvwl_mux.xi7.xu0.               inv_pcell_0        1.00 
      134 xvwl_mux.xi6.xu1.               inv_pcell_0        1.00 
      135 xvwl_mux.xi6.xu0.               inv_pcell_0        1.00 
      136 xvwl_mux.xi5.xu1.               inv_pcell_0        1.00 
      137 xvwl_mux.xi5.xu0.               inv_pcell_0        1.00 
      138 xvwl_mux.xi4.xu1.               inv_pcell_0        1.00 
      139 xvwl_mux.xi4.xu0.               inv_pcell_0        1.00 
      140 xvwl_mux.xi3.xu1.               inv_pcell_0        1.00 
      141 xvwl_mux.xi3.xu0.               inv_pcell_0        1.00 
      142 xvwl_mux.xi2.xu1.               inv_pcell_0        1.00 
      143 xvwl_mux.xi2.xu0.               inv_pcell_0        1.00 
      144 xvwl_mux.xi1.xu1.               inv_pcell_0        1.00 
      145 xvwl_mux.xi1.xu0.               inv_pcell_0        1.00 
      146 xvwl_mux.xi0.xu1.               inv_pcell_0        1.00 
      147 xvwl_mux.xi0.xu0.               inv_pcell_0        1.00 
      148 xclk_gen.xgen.x_0.              inv_chain_stimulus
                                                                 1.00 
      149 xa0_gen.xgen.x_0.               inv_chain_stimulus
                                                                 1.00 
      150 xa255_gen.xgen.x_0.             inv_chain_stimulus
                                                                 1.00 
      151 xclk_gen.xgen.x_0.x_0.          inv_stimulus       1.00 
      152 xclk_gen.xgen.x_0.x_1.          inv_stimulus       4.00 
      153 xclk_gen.xgen.x_0.x_2.          inv_stimulus      16.00 
      154 xclk_gen.xgen.x_0.x_3.          inv_stimulus      64.00 
      155 xa0_gen.xgen.x_0.x_0.           inv_stimulus       1.00 
      156 xa0_gen.xgen.x_0.x_1.           inv_stimulus       4.00 
      157 xa0_gen.xgen.x_0.x_2.           inv_stimulus      16.00 
      158 xa0_gen.xgen.x_0.x_3.           inv_stimulus      64.00 
      159 xa255_gen.xgen.x_0.x_0.         inv_stimulus       1.00 
      160 xa255_gen.xgen.x_0.x_1.         inv_stimulus       4.00 
      161 xa255_gen.xgen.x_0.x_2.         inv_stimulus      16.00 
      162 xa255_gen.xgen.x_0.x_3.         inv_stimulus      64.00 


 circuit parameter definitions
  parameter          =  value 

     0:supply                                                  =   1.0000       
     0:tcyc                                                    =   1.0000n      
     0:trf                                                     =  50.0000p      
     0:pd24s1pw                                                =   7.0000       
     0:pd24s1nw                                                =   5.0000       
     0:pd24s2pw                                                =  13.0000       
     0:pd24s2nw                                                =   5.0000       
     0:pd416s3pw                                               =   9.0000       
     0:pd416s3nw                                               =   5.0000       
     0:pd416s4pw                                               =  12.0000       
     0:pd416s4nw                                               =   5.0000       
     0:pd416s5pw                                               =  12.0000       
     0:pd416s5nw                                               =   5.0000       
     0:pd416s6pw                                               =  30.0000       
     0:pd416s6nw                                               =  10.0000       
     0:dss7pw                                                  =   9.0000       
     0:dss7nw                                                  =   5.0000       
     0:dss8pw                                                  =  18.0000       
     0:dss8nw                                                  =   7.0000       
     0:bds9pw                                                  =  27.0000       
     0:bds9nw                                                  =  13.0000       
     0:bds10pw                                                 =  18.0000       
     0:bds10nw                                                 =   7.0000       
     0:blpcwidth                                               =  80.0000       
     0:wl0_rise                                                =   0.           
     0:wl0_width                                               =   0.           
     0:wl0_fall                                                =   0.           
     0:wl1_rise                                                =   0.           
     0:wl1_fall                                                =   0.           
     0:bl0_split                                               =   0.           
     0:bl1_split                                               =   0.           
     0:bl_pc_overlap                                           =   0.           
     0:bl63_pc_overlap                                         =   0.           
     0:clk-out0                                                =   0.           
     0:precharge                                               =   0.           
     0:sae-out0                                                =   0.           
     0:out0-width                                              =   0.           
   128:nl                                                      =   2.0000       
   128:nw                                                      =   5.0000       
   128:nm                                                      =   1.0000       
   128:pl                                                      =   2.0000       
   128:pw                                                      =   7.0000       
   128:pm                                                      =   1.0000       
   151:wp                                                      =  24.0000       
   151:lp                                                      =   2.0000       
   151:wn                                                      =   8.0000       
   151:ln                                                      =   2.0000       
   152:wp                                                      =  24.0000       
   152:lp                                                      =   2.0000       
   152:wn                                                      =   8.0000       
   152:ln                                                      =   2.0000       
   153:wp                                                      =  24.0000       
   153:lp                                                      =   2.0000       
   153:wn                                                      =   8.0000       
   153:ln                                                      =   2.0000       
   154:wp                                                      =  24.0000       
   154:lp                                                      =   2.0000       
   154:wn                                                      =   8.0000       
   154:ln                                                      =   2.0000       
   155:wp                                                      =  24.0000       
   155:lp                                                      =   2.0000       
   155:wn                                                      =   8.0000       
   155:ln                                                      =   2.0000       
   156:wp                                                      =  24.0000       
   156:lp                                                      =   2.0000       
   156:wn                                                      =   8.0000       
   156:ln                                                      =   2.0000       
   157:wp                                                      =  24.0000       
   157:lp                                                      =   2.0000       
   157:wn                                                      =   8.0000       
   157:ln                                                      =   2.0000       
   158:wp                                                      =  24.0000       
   158:lp                                                      =   2.0000       
   158:wn                                                      =   8.0000       
   158:ln                                                      =   2.0000       
   159:wp                                                      =  24.0000       
   159:lp                                                      =   2.0000       
   159:wn                                                      =   8.0000       
   159:ln                                                      =   2.0000       
   160:wp                                                      =  24.0000       
   160:lp                                                      =   2.0000       
   160:wn                                                      =   8.0000       
   160:ln                                                      =   2.0000       
   161:wp                                                      =  24.0000       
   161:lp                                                      =   2.0000       
   161:wn                                                      =   8.0000       
   161:ln                                                      =   2.0000       
   162:wp                                                      =  24.0000       
   162:lp                                                      =   2.0000       
   162:wn                                                      =   8.0000       
   162:ln                                                      =   2.0000       




 constants  - tnom         kt           vt           gapsi        ni
            298.15000    4.1163e-21    25.69184m     1.11562    1.2565e+16 
  **info** (part2_decoder_Blocked_Slowed_Switched_WR_Voltages.hsp:89) DC voltage reset to initial transient source value              in source        0:vblock0             new dc=  0.0000D+00
  **warning** (/usr/class/ee313/ee313_spice_header.h:18) Both nodes of element vgnd are connected together; Line ignored.
 ** warning** associated with encrypted blocks were suppressed

1****** HSPICE -- F-2011.09-SP2 32-BIT (Feb 27 2012) linux ******               
 ******  
 part 2

  ******  circuit element summary tnom=  25.000 temp=  25.000 *****


 **** capacitors
  
  
                                                                    
 element name        5:c1           5:c0        6:c1        6:c0    
 node1               5:predec_25    5:predec    0:sapc_b    0:b3sae 
 node2               0:0            0:0         0:0         0:0     
 model                                                              
 cap eff            22.5300f       22.5300f   560.0000a   560.0000a 
 tc1                 0.             0.          0.          0.      
 tc2                 0.             0.          0.          0.      
 scale               1.0000         1.0000      1.0000      1.0000  
 ic                  0.             0.          0.          0.      
 m                   1.0000         1.0000      1.0000      1.0000  
 w                   0.             0.          0.          0.      
 l                   0.             0.          0.          0.      
 temp               25.0000        25.0000     25.0000     25.0000  
  
  
                                                                
 element name        7:c1        7:c0      36:c2      36:c1     
 node1               0:sapc_b    0:b0sae    0:bl63     0:bl_b63 
 node2               0:0         0:0        0:0        0:0      
 model                                                          
 cap eff           560.0000a   560.0000a   88.0000a   88.0000a  
 tc1                 0.          0.         0.         0.       
 tc2                 0.          0.         0.         0.       
 scale               1.0000      1.0000     1.0000     1.0000   
 ic                  0.          0.         0.         0.       
 m                   1.0000      1.0000     1.0000     1.0000   
 w                   0.          0.         0.         0.       
 l                   0.          0.         0.         0.       
 temp               25.0000     25.0000    25.0000    25.0000   
  
  
                                                                  
 element name       36:c0         37:c2      37:c1       38:c2    
 node1               0:b3wl0_sw    0:bl63     0:bl_b63    0:bl63  
 node2               0:0           0:0        0:0         0:0     
 model                                                            
 cap eff           140.0000a      22.3520f   22.3520f    88.0000a 
 tc1                 0.            0.         0.          0.      
 tc2                 0.            0.         0.          0.      
 scale               1.0000        1.0000     1.0000      1.0000  
 ic                  0.            0.         0.          0.      
 m                   1.0000      254.0000   254.0000      1.0000  
 w                   0.            0.         0.          0.      
 l                   0.            0.         0.          0.      
 temp               25.0000       25.0000    25.0000     25.0000  
  
  
                                                                      
 element name       38:c1       38:c0         39:c2        39:c1      
 node1               0:bl_b63    0:b3wl255_    4:net0207    4:net0206 
 node2               0:0         0:0           0:0          0:0       
 model                                                                
 cap eff            88.0000a   140.0000a       5.5440f      5.5440f   
 tc1                 0.          0.            0.           0.        
 tc2                 0.          0.            0.           0.        
 scale               1.0000      1.0000        1.0000       1.0000    
 ic                  0.          0.            0.           0.        
 m                   1.0000      1.0000       63.0000      63.0000    
 w                   0.          0.            0.           0.        
 l                   0.          0.            0.           0.        
 temp               25.0000     25.0000       25.0000      25.0000    
  
  
                                                                       
 element name       39:c0         40:c2        40:c1        41:c2      
 node1               0:b3wl0_sw    4:net0207    4:net0206    4:net0207 
 node2               0:0           0:0          0:0          0:0       
 model                                                                 
 cap eff             8.8200f       1.4080p      1.4080p      5.5440f   
 tc1                 0.            0.           0.           0.        
 tc2                 0.            0.           0.           0.        
 scale               1.0000        1.0000       1.0000       1.0000    
 ic                  0.            0.           0.           0.        
 m                  63.0000       16.0000k     16.0000k     63.0000    
 w                   0.            0.           0.           0.        
 l                   0.            0.           0.           0.        
 temp               25.0000       25.0000      25.0000      25.0000    
  
  
                                                                       
 element name       41:c1        41:c0         42:c2        42:c1      
 node1               4:net0206    0:b3wl255_    4:net0163    4:net0162 
 node2               0:0          0:0           0:0          0:0       
 model                                                                 
 cap eff             5.5440f      8.8200f       5.6320f      5.6320f   
 tc1                 0.           0.            0.           0.        
 tc2                 0.           0.            0.           0.        
 scale               1.0000       1.0000        1.0000       1.0000    
 ic                  0.           0.            0.           0.        
 m                  63.0000      63.0000       64.0000      64.0000    
 w                   0.           0.            0.           0.        
 l                   0.           0.            0.           0.        
 temp               25.0000      25.0000       25.0000      25.0000    
  
  
                                                                        
 element name       42:c0         43:c2        43:c1        43:c0       
 node1               0:b2wl255_    4:net0163    4:net0162    0:b2wl0_sw 
 node2               0:0           0:0          0:0          0:0        
 model                                                                  
 cap eff             8.9600f       5.6320f      5.6320f      8.9600f    
 tc1                 0.            0.           0.           0.         
 tc2                 0.            0.           0.           0.         
 scale               1.0000        1.0000       1.0000       1.0000     
 ic                  0.            0.           0.           0.         
 m                  64.0000       64.0000      64.0000      64.0000     
 w                   0.            0.           0.           0.         
 l                   0.            0.           0.           0.         
 temp               25.0000       25.0000      25.0000      25.0000     
  
  
                                                                      
 element name       44:c2        44:c1        45:c2        45:c1      
 node1               4:net0163    4:net0162    4:net0180    4:net0136 
 node2               0:0          0:0          0:0          0:0       
 model                                                                
 cap eff             1.4309p      1.4309p      5.6320f      5.6320f   
 tc1                 0.           0.           0.           0.        
 tc2                 0.           0.           0.           0.        
 scale               1.0000       1.0000       1.0000       1.0000    
 ic                  0.           0.           0.           0.        
 m                  16.2600k     16.2600k     64.0000      64.0000    
 w                   0.           0.           0.           0.        
 l                   0.           0.           0.           0.        
 temp               25.0000      25.0000      25.0000      25.0000    
  
  
                                                                        
 element name       45:c0         46:c2        46:c1        46:c0       
 node1               0:b1wl0_sw    4:net0234    4:net0233    0:b0wl255_ 
 node2               0:0           0:0          0:0          0:0        
 model                                                                  
 cap eff             8.9600f       5.5440f      5.5440f      8.8200f    
 tc1                 0.            0.           0.           0.         
 tc2                 0.            0.           0.           0.         
 scale               1.0000        1.0000       1.0000       1.0000     
 ic                  0.            0.           0.           0.         
 m                  64.0000       63.0000      63.0000      63.0000     
 w                   0.            0.           0.           0.         
 l                   0.            0.           0.           0.         
 temp               25.0000       25.0000      25.0000      25.0000     
  
  
                                                                 
 element name       47:c2      47:c1      47:c0         48:c2    
 node1               0:bl0      0:bl_b0    0:b0wl255_    0:bl0   
 node2               0:0        0:0        0:0           0:0     
 model                                                           
 cap eff            88.0000a   88.0000a  140.0000a      22.3520f 
 tc1                 0.         0.         0.            0.      
 tc2                 0.         0.         0.            0.      
 scale               1.0000     1.0000     1.0000        1.0000  
 ic                  0.         0.         0.            0.      
 m                   1.0000     1.0000     1.0000      254.0000  
 w                   0.         0.         0.            0.      
 l                   0.         0.         0.            0.      
 temp               25.0000    25.0000    25.0000       25.0000  
  
  
                                                                    
 element name       48:c1      49:c2        49:c1        50:c2      
 node1               0:bl_b0    4:net0234    4:net0233    4:net0180 
 node2               0:0        0:0          0:0          0:0       
 model                                                              
 cap eff            22.3520f    1.4080p      1.4080p      1.4309p   
 tc1                 0.         0.           0.           0.        
 tc2                 0.         0.           0.           0.        
 scale               1.0000     1.0000       1.0000       1.0000    
 ic                  0.         0.           0.           0.        
 m                 254.0000    16.0000k     16.0000k     16.2600k   
 w                   0.         0.           0.           0.        
 l                   0.         0.           0.           0.        
 temp               25.0000    25.0000      25.0000      25.0000    
  
  
                                                                       
 element name       50:c1        51:c2        51:c1        51:c0       
 node1               4:net0136    4:net0180    4:net0136    0:b1wl255_ 
 node2               0:0          0:0          0:0          0:0        
 model                                                                 
 cap eff             1.4309p      5.6320f      5.6320f      8.9600f    
 tc1                 0.           0.           0.           0.         
 tc2                 0.           0.           0.           0.         
 scale               1.0000       1.0000       1.0000       1.0000     
 ic                  0.           0.           0.           0.         
 m                  16.2600k     64.0000      64.0000      64.0000     
 w                   0.           0.           0.           0.         
 l                   0.           0.           0.           0.         
 temp               25.0000      25.0000      25.0000      25.0000     
  
  
                                                                     
 element name       52:c2        52:c1        52:c0         53:c2    
 node1               4:net0234    4:net0233    0:b0wl0_sw    0:bl0   
 node2               0:0          0:0          0:0           0:0     
 model                                                               
 cap eff             5.5440f      5.5440f      8.8200f      88.0000a 
 tc1                 0.           0.           0.            0.      
 tc2                 0.           0.           0.            0.      
 scale               1.0000       1.0000       1.0000        1.0000  
 ic                  0.           0.           0.            0.      
 m                  63.0000      63.0000      63.0000        1.0000  
 w                   0.           0.           0.            0.      
 l                   0.           0.           0.            0.      
 temp               25.0000      25.0000      25.0000       25.0000  
  
  
                                           
 element name       53:c1      53:c0       
 node1               0:bl_b0    0:b0wl0_sw 
 node2               0:0        0:0        
 model                                     
 cap eff            88.0000a  140.0000a    
 tc1                 0.         0.         
 tc2                 0.         0.         
 scale               1.0000     1.0000     
 ic                  0.         0.         
 m                   1.0000     1.0000     
 w                   0.         0.         
 l                   0.         0.         
 temp               25.0000    25.0000     


 **** voltage-controlled voltage sources
      name        +             -          dimension  function  scale
       79:e_0            79:net_3           0:0              1      poly       1.    
       80:e_0            80:net_3           0:0              1      poly       1.    
       81:e_0            81:net_3           0:0              1      poly       1.    


 **** current-controlled current sources
      name        +             -          dimension  function  multiplier
       79:f_0            79:net_4           0:0              1      poly       1.    
       79:f_1            79:net_4           0:0              1      poly       1.    
       80:f_0            80:net_4           0:0              1      poly       1.    
       80:f_1            80:net_4           0:0              1      poly       1.    
       81:f_0            81:net_4           0:0              1      poly       1.    
       81:f_1            81:net_4           0:0              1      poly       1.    


 **** independent sources

     name         node1        node2      dc volt    ac mag    ac phase    type
  v_supply  vdd               0                    1.0000     0.         0.      dc   
  v_supply1  vdd!              0                    1.0000     0.         0.      dc   
  vblock0  block0            0                    0.         0.         0.      pulse
             initial value     0.     
             pulsed value.     1.0000 
             delay time...   500.0000p
             risetime.....    50.0000p
             falltime.....    50.0000p
             width........     2.0000n
             period.......     4.0000n

  vblock3  block3            0                    1.0000     0.         0.      pulse
             initial value     1.0000 
             pulsed value.     0.     
             delay time...   500.0000p
             risetime.....    50.0000p
             falltime.....    50.0000p
             width........     2.0000n
             period.......     4.0000n

  vblpc_b  blpc_b            0                    1.0000     0.         0.      pulse
             initial value     1.0000 
             pulsed value.     0.     
             delay time...   185.0000p
             risetime.....    50.0000p
             falltime.....    50.0000p
             width........   450.0000p
             period.......     1.0000n

  vsae  sae               0                    0.         0.         0.      pulse
             initial value     0.     
             pulsed value.     1.0000 
             delay time...   900.0000p
             risetime.....    50.0000p
             falltime.....    50.0000p
             width........   450.0000p
             period.......     1.0000n

  vsapc_b  sapc_b            0                    1.0000     0.         0.      pulse
             initial value     1.0000 
             pulsed value.     0.     
             delay time...   300.0000p
             risetime.....    50.0000p
             falltime.....    50.0000p
             width........   450.0000p
             period.......     1.0000n

  vsel_b0  sel_b0            0                    1.0000     0.         0.      pulse
             initial value     1.0000 
             pulsed value.     0.     
             delay time...   800.0000p
             risetime.....    50.0000p
             falltime.....    50.0000p
             width........   450.0000p
             period.......     1.0000n

  vsel_b63  sel_b63           0                    1.0000     0.         0.      pulse
             initial value     1.0000 
             pulsed value.     0.     
             delay time...   800.0000p
             risetime.....    50.0000p
             falltime.....    50.0000p
             width........   450.0000p
             period.......     1.0000n

  vvcell  vcell             0                  900.0000m    0.         0.      dc   
  vvdd_wr  vdd_wr            0                  800.0000m    0.         0.      dc   
  vwrdata0  wrdata0           0                    0.         0.         0.      dc   
  vwrdata255  wrdata255         0                    1.0000     0.         0.      dc   
  vwren  wren              0                    1.0000     0.         0.      pulse
             initial value     1.0000 
             pulsed value.     0.     
             delay time...     0.     
             risetime.....    50.0000p
             falltime.....    50.0000p
             width........     3.5000n
             period.......     7.0000n

 xclk_gen.vsrc xclk_gen.src               0                    0.         0.         0.      pulse
             initial value     0.     
             pulsed value.     1.0000 
             delay time...   500.0000p
             risetime.....    50.0000p
             falltime.....    50.0000p
             width........   450.0000p
             period.......     1.0000n

 xa0_gen.vsrc xa0_gen.src               0                    0.         0.         0.      pulse
             initial value     0.     
             pulsed value.     1.0000 
             delay time...   375.0000p
             risetime.....    50.0000p
             falltime.....    50.0000p
             width........   950.0000p
             period.......     2.0000n

 xa255_gen.vsrc xa255_gen.src               0                    0.         0.         0.      pulse
             initial value     0.     
             pulsed value.     1.0000 
             delay time...     1.3750n
             risetime.....    50.0000p
             falltime.....    50.0000p
             width........   950.0000p
             period.......     2.0000n

 xarray.xwriter.vmon_bl xarray.xwriter.net032            bl63                 0.         0.         0.      dc   
 xarray.xwriter.vmon_blb xarray.xwriter.net023            bl_b63               0.         0.         0.      dc   
 xarray.xwriter.vmon_blpc  blpc_b           xarray.xwriter.net031               0.         0.         0.      dc   
 xarray.xwriteb3dum.vmon_bl xarray.xwriteb3dum.net032           xarray.net0207              0.         0.         0.      dc   
 xarray.xwriteb3dum.vmon_blb xarray.xwriteb3dum.net023           xarray.net0206              0.         0.         0.      dc   
 xarray.xwriteb3dum.vmon_blpc  blpc_b           xarray.xwriteb3dum.net031               0.         0.         0.      dc   
 xarray.xwriteb1dum.vmon_bl xarray.xwriteb1dum.net032           xarray.net0180              0.         0.         0.      dc   
 xarray.xwriteb1dum.vmon_blb xarray.xwriteb1dum.net023           xarray.net0136              0.         0.         0.      dc   
 xarray.xwriteb1dum.vmon_blpc  blpc_b           xarray.xwriteb1dum.net031               0.         0.         0.      dc   
 xarray.xwriteb2dum.vmon_bl xarray.xwriteb2dum.net032           xarray.net0163              0.         0.         0.      dc   
 xarray.xwriteb2dum.vmon_blb xarray.xwriteb2dum.net023           xarray.net0162              0.         0.         0.      dc   
 xarray.xwriteb2dum.vmon_blpc  blpc_b           xarray.xwriteb2dum.net031               0.         0.         0.      dc   
 xarray.xwriteb0dum.vmon_bl xarray.xwriteb0dum.net032           xarray.net0234              0.         0.         0.      dc   
 xarray.xwriteb0dum.vmon_blb xarray.xwriteb0dum.net023           xarray.net0233              0.         0.         0.      dc   
 xarray.xwriteb0dum.vmon_blpc  blpc_b           xarray.xwriteb0dum.net031               0.         0.         0.      dc   
 xarray.xwritel.vmon_bl xarray.xwritel.net032            bl0                  0.         0.         0.      dc   
 xarray.xwritel.vmon_blb xarray.xwritel.net023            bl_b0                0.         0.         0.      dc   
 xarray.xwritel.vmon_blpc  blpc_b           xarray.xwritel.net031               0.         0.         0.      dc   
 xclk_gen.xgen.v_monitor xclk_gen.xgen.net_4             0                    1.0000     0.         0.      dc   
 xclk_gen.xgen.v_sense xclk_gen.xgen.net_3             ck                   0.         0.         0.      dc   
 xa0_gen.xgen.v_monitor xa0_gen.xgen.net_4             0                    1.0000     0.         0.      dc   
 xa0_gen.xgen.v_sense xa0_gen.xgen.net_3             a0                   0.         0.         0.      dc   
 xa255_gen.xgen.v_monitor xa255_gen.xgen.net_4             0                    1.0000     0.         0.      dc   
 xa255_gen.xgen.v_sense xa255_gen.xgen.net_3             a255                 0.         0.         0.      dc   
 xclk_gen.xgen.x_0.x_0.vstimulus_supply xclk_gen.xgen.x_0.x_0.vdd_stimulus      0                    1.0000     0.         0.      dc   
 xclk_gen.xgen.x_0.x_1.vstimulus_supply xclk_gen.xgen.x_0.x_1.vdd_stimulus      0                    1.0000     0.         0.      dc   
 xclk_gen.xgen.x_0.x_2.vstimulus_supply xclk_gen.xgen.x_0.x_2.vdd_stimulus      0                    1.0000     0.         0.      dc   
 xclk_gen.xgen.x_0.x_3.vstimulus_supply xclk_gen.xgen.x_0.x_3.vdd_stimulus      0                    1.0000     0.         0.      dc   
 xa0_gen.xgen.x_0.x_0.vstimulus_supply xa0_gen.xgen.x_0.x_0.vdd_stimulus      0                    1.0000     0.         0.      dc   
 xa0_gen.xgen.x_0.x_1.vstimulus_supply xa0_gen.xgen.x_0.x_1.vdd_stimulus      0                    1.0000     0.         0.      dc   
 xa0_gen.xgen.x_0.x_2.vstimulus_supply xa0_gen.xgen.x_0.x_2.vdd_stimulus      0                    1.0000     0.         0.      dc   
 xa0_gen.xgen.x_0.x_3.vstimulus_supply xa0_gen.xgen.x_0.x_3.vdd_stimulus      0                    1.0000     0.         0.      dc   
 xa255_gen.xgen.x_0.x_0.vstimulus_supply xa255_gen.xgen.x_0.x_0.vdd_stimulus      0                    1.0000     0.         0.      dc   
 xa255_gen.xgen.x_0.x_1.vstimulus_supply xa255_gen.xgen.x_0.x_1.vdd_stimulus      0                    1.0000     0.         0.      dc   
 xa255_gen.xgen.x_0.x_2.vstimulus_supply xa255_gen.xgen.x_0.x_2.vdd_stimulus      0                    1.0000     0.         0.      dc   
 xa255_gen.xgen.x_0.x_3.vstimulus_supply xa255_gen.xgen.x_0.x_3.vdd_stimulus      0                    1.0000     0.         0.      dc   


 **** mosfets


 **** BSIM4 Model (Level 54)
  
  
                                                                
 element name        6:m4       6:m3       6:meq       6:mpc2   
 drain               6:sbl_b    0:vdd!     6:sbl       0:vdd!   
 gate                6:sbl      6:sbl_b    0:sapc_b    0:sapc_b 
 source              0:vdd!     6:sbl      6:sbl_b     6:sbl_b  
 bulk                0:vdd!     0:vdd!     0:vdd!      0:vdd!   
 model               0:pmos     0:pmos     0:pmos      0:pmos   
 w eff              78.0000n   78.0000n  166.0000n   166.0000n  
 l eff              29.0000n   29.0000n   29.0000n    29.0000n  
 rd eff              0.         0.         0.          0.       
 rs eff              0.         0.         0.          0.       
 cdsat               7.8700a    7.8700a   15.1073a    15.1073a  
 cssat               7.8700a    7.8700a   15.1073a    15.1073a  
 capbd             133.6681a  133.6681a  223.4243a   223.4243a  
 capbs             116.1033a  116.1033a  188.2947a   188.2947a  
 temp               25.0000    25.0000    25.0000     25.0000   
 aic                                                            
 nf                  1.0000     1.0000     1.0000      1.0000   
 min                 0.         0.         0.          0.       
 rbdb               15.0000    15.0000    15.0000     15.0000   
 rbsb               15.0000    15.0000    15.0000     15.0000   
 rbpb                5.0000     5.0000     5.0000      5.0000   
 rbps               15.0000    15.0000    15.0000     15.0000   
 rbpd               15.0000    15.0000    15.0000     15.0000   
 trnqsmod            0.         0.         0.          0.       
 acnqsmod            0.         0.         0.          0.       
 rbodymod            1.0000     1.0000     1.0000      1.0000   
 rgatemod            1.0000     1.0000     1.0000      1.0000   
 geomod              0.         0.         0.          0.       
 rgeomod             0.         0.         0.          0.       
 delvto              0.         0.         0.          0.       
 mulu0               1.0000     1.0000     1.0000      1.0000   
 delk1               0.         0.         0.          0.       
 delnfct             0.         0.         0.          0.       
 deltox              0.         0.         0.          0.       
 sa                  0.         0.         0.          0.       
 sb                  0.         0.         0.          0.       
 sd                  0.         0.         0.          0.       
 saeff               0.         0.         0.          0.       
 sbeff               0.         0.         0.          0.       
  
  
                                                                 
 element name        6:mpc       6:miso_b    6:miso     6:mmx4_b 
 drain               6:sbl       6:sbl_b     6:sbl      6:cmbl_b 
 gate                0:sapc_b    0:b3sae     0:b3sae    0:vdd!   
 source              0:vdd!      6:cmbl_b    6:cmbl     0:vdd!   
 bulk                0:vdd!      0:vdd!      0:vdd!     0:vdd!   
 model               0:pmos      0:pmos      0:pmos     0:pmos   
 w eff             166.0000n   254.0000n   254.0000n  518.0000n  
 l eff              29.0000n    29.0000n    29.0000n   29.0000n  
 rd eff              0.          0.          0.         0.       
 rs eff              0.          0.          0.         0.       
 cdsat              15.1073a    22.3447a    22.3447a   44.0567a  
 cssat              15.1073a    22.3447a    22.3447a   44.0567a  
 capbd             223.4243a   313.1804a   313.1804a  582.4488a  
 capbs             188.2947a   260.4860a   260.4860a  477.0600a  
 temp               25.0000     25.0000     25.0000    25.0000   
 aic                                                             
 nf                  1.0000      1.0000      1.0000     1.0000   
 min                 0.          0.          0.         0.       
 rbdb               15.0000     15.0000     15.0000    15.0000   
 rbsb               15.0000     15.0000     15.0000    15.0000   
 rbpb                5.0000      5.0000      5.0000     5.0000   
 rbps               15.0000     15.0000     15.0000    15.0000   
 rbpd               15.0000     15.0000     15.0000    15.0000   
 trnqsmod            0.          0.          0.         0.       
 acnqsmod            0.          0.          0.         0.       
 rbodymod            1.0000      1.0000      1.0000     1.0000   
 rgatemod            1.0000      1.0000      1.0000     1.0000   
 geomod              0.          0.          0.         0.       
 rgeomod             0.          0.          0.         0.       
 delvto              0.          0.          0.         0.       
 mulu0               1.0000      1.0000      1.0000     1.0000   
 delk1               0.          0.          0.         0.       
 delnfct             0.          0.          0.         0.       
 deltox              0.          0.          0.         0.       
 sa                  0.          0.          0.         0.       
 sb                  0.          0.          0.         0.       
 sd                  0.          0.          0.         0.       
 saeff               0.          0.          0.         0.       
 sbeff               0.          0.          0.         0.       
  
  
                                                                
 element name        6:mmx4     6:mmx3_b    6:mmx3     6:mmx2_b 
 drain               6:cmbl     6:cmbl_b    6:cmbl     6:cmbl_b 
 gate                0:vdd!     0:vdd!      0:vdd!     0:vdd!   
 source              0:vdd!     0:vdd!      0:vdd!     0:vdd!   
 bulk                0:vdd!     0:vdd!      0:vdd!     0:vdd!   
 model               0:pmos     0:pmos      0:pmos     0:pmos   
 w eff             518.0000n  518.0000n   518.0000n  518.0000n  
 l eff              29.0000n   29.0000n    29.0000n   29.0000n  
 rd eff              0.         0.          0.         0.       
 rs eff              0.         0.          0.         0.       
 cdsat              44.0567a   44.0567a    44.0567a   44.0567a  
 cssat              44.0567a   44.0567a    44.0567a   44.0567a  
 capbd             582.4488a  582.4488a   582.4488a  582.4488a  
 capbs             477.0600a  477.0600a   477.0600a  477.0600a  
 temp               25.0000    25.0000     25.0000    25.0000   
 aic                                                            
 nf                  1.0000     1.0000      1.0000     1.0000   
 min                 0.         0.          0.         0.       
 rbdb               15.0000    15.0000     15.0000    15.0000   
 rbsb               15.0000    15.0000     15.0000    15.0000   
 rbpb                5.0000     5.0000      5.0000     5.0000   
 rbps               15.0000    15.0000     15.0000    15.0000   
 rbpd               15.0000    15.0000     15.0000    15.0000   
 trnqsmod            0.         0.          0.         0.       
 acnqsmod            0.         0.          0.         0.       
 rbodymod            1.0000     1.0000      1.0000     1.0000   
 rgatemod            1.0000     1.0000      1.0000     1.0000   
 geomod              0.         0.          0.         0.       
 rgeomod             0.         0.          0.         0.       
 delvto              0.         0.          0.         0.       
 mulu0               1.0000     1.0000      1.0000     1.0000   
 delk1               0.         0.          0.         0.       
 delnfct             0.         0.          0.         0.       
 deltox              0.         0.          0.         0.       
 sa                  0.         0.          0.         0.       
 sb                  0.         0.          0.         0.       
 sd                  0.         0.          0.         0.       
 saeff               0.         0.          0.         0.       
 sbeff               0.         0.          0.         0.       
  
  
                                                                    
 element name        6:mmx2     6:mmx_b       6:mmx         6:mtail 
 drain               6:cmbl     6:cmbl_b      6:cmbl        6:tail  
 gate                0:vdd!     0:b3sel_b6    0:b3sel_b6    0:b3sae 
 source              0:vdd!     0:bl_b63      0:bl63        0:0     
 bulk                0:vdd!     0:vdd!        0:vdd!        0:0     
 model               0:pmos     0:pmos        0:pmos        0:nmos  
 w eff             518.0000n  518.0000n     518.0000n     166.0000n 
 l eff              29.0000n   29.0000n      29.0000n      29.0000n 
 rd eff              0.         0.            0.            0.      
 rs eff              0.         0.            0.            0.      
 cdsat              44.0567a   44.0567a      44.0567a      15.1073a 
 cssat              44.0567a   44.0567a      44.0567a      15.1073a 
 capbd             582.4488a  582.4488a     582.4488a     223.4243a 
 capbs             477.0600a  477.0600a     477.0600a     188.2947a 
 temp               25.0000    25.0000       25.0000       25.0000  
 aic                                                                
 nf                  1.0000     1.0000        1.0000        1.0000  
 min                 0.         0.            0.            0.      
 rbdb               15.0000    15.0000       15.0000       15.0000  
 rbsb               15.0000    15.0000       15.0000       15.0000  
 rbpb                5.0000     5.0000        5.0000        5.0000  
 rbps               15.0000    15.0000       15.0000       15.0000  
 rbpd               15.0000    15.0000       15.0000       15.0000  
 trnqsmod            0.         0.            0.            0.      
 acnqsmod            0.         0.            0.            0.      
 rbodymod            1.0000     1.0000        1.0000        1.0000  
 rgatemod            1.0000     1.0000        1.0000        1.0000  
 geomod              0.         0.            0.            0.      
 rgeomod             0.         0.            0.            0.      
 delvto              0.         0.            0.            0.      
 mulu0               1.0000     1.0000        1.0000        1.0000  
 delk1               0.         0.            0.            0.      
 delnfct             0.         0.            0.            0.      
 deltox              0.         0.            0.            0.      
 sa                  0.         0.            0.            0.      
 sb                  0.         0.            0.            0.      
 sd                  0.         0.            0.            0.      
 saeff               0.         0.            0.            0.      
 sbeff               0.         0.            0.            0.      
  
  
                                                              
 element name        6:m1       6:m2       7:m4       7:m3    
 drain               6:tail     6:sbl_b    7:sbl_b    0:vdd!  
 gate                6:sbl_b    6:sbl      7:sbl      7:sbl_b 
 source              6:sbl      6:tail     0:vdd!     7:sbl   
 bulk                0:0        0:0        0:vdd!     0:vdd!  
 model               0:nmos     0:nmos     0:pmos     0:pmos  
 w eff             122.0000n  122.0000n   78.0000n   78.0000n 
 l eff              29.0000n   29.0000n   29.0000n   29.0000n 
 rd eff              0.         0.         0.         0.      
 rs eff              0.         0.         0.         0.      
 cdsat              11.4887a   11.4887a    7.8700a    7.8700a 
 cssat              11.4887a   11.4887a    7.8700a    7.8700a 
 capbd             178.5462a  178.5462a  133.6681a  133.6681a 
 capbs             152.1990a  152.1990a  116.1033a  116.1033a 
 temp               25.0000    25.0000    25.0000    25.0000  
 aic                                                          
 nf                  1.0000     1.0000     1.0000     1.0000  
 min                 0.         0.         0.         0.      
 rbdb               15.0000    15.0000    15.0000    15.0000  
 rbsb               15.0000    15.0000    15.0000    15.0000  
 rbpb                5.0000     5.0000     5.0000     5.0000  
 rbps               15.0000    15.0000    15.0000    15.0000  
 rbpd               15.0000    15.0000    15.0000    15.0000  
 trnqsmod            0.         0.         0.         0.      
 acnqsmod            0.         0.         0.         0.      
 rbodymod            1.0000     1.0000     1.0000     1.0000  
 rgatemod            1.0000     1.0000     1.0000     1.0000  
 geomod              0.         0.         0.         0.      
 rgeomod             0.         0.         0.         0.      
 delvto              0.         0.         0.         0.      
 mulu0               1.0000     1.0000     1.0000     1.0000  
 delk1               0.         0.         0.         0.      
 delnfct             0.         0.         0.         0.      
 deltox              0.         0.         0.         0.      
 sa                  0.         0.         0.         0.      
 sb                  0.         0.         0.         0.      
 sd                  0.         0.         0.         0.      
 saeff               0.         0.         0.         0.      
 sbeff               0.         0.         0.         0.      
  
  
                                                                  
 element name        7:meq       7:mpc2      7:mpc       7:miso_b 
 drain               7:sbl       0:vdd!      7:sbl       7:sbl_b  
 gate                0:sapc_b    0:sapc_b    0:sapc_b    0:b0sae  
 source              7:sbl_b     7:sbl_b     0:vdd!      7:cmbl_b 
 bulk                0:vdd!      0:vdd!      0:vdd!      0:vdd!   
 model               0:pmos      0:pmos      0:pmos      0:pmos   
 w eff             166.0000n   166.0000n   166.0000n   254.0000n  
 l eff              29.0000n    29.0000n    29.0000n    29.0000n  
 rd eff              0.          0.          0.          0.       
 rs eff              0.          0.          0.          0.       
 cdsat              15.1073a    15.1073a    15.1073a    22.3447a  
 cssat              15.1073a    15.1073a    15.1073a    22.3447a  
 capbd             223.4243a   223.4243a   223.4243a   313.1804a  
 capbs             188.2947a   188.2947a   188.2947a   260.4860a  
 temp               25.0000     25.0000     25.0000     25.0000   
 aic                                                              
 nf                  1.0000      1.0000      1.0000      1.0000   
 min                 0.          0.          0.          0.       
 rbdb               15.0000     15.0000     15.0000     15.0000   
 rbsb               15.0000     15.0000     15.0000     15.0000   
 rbpb                5.0000      5.0000      5.0000      5.0000   
 rbps               15.0000     15.0000     15.0000     15.0000   
 rbpd               15.0000     15.0000     15.0000     15.0000   
 trnqsmod            0.          0.          0.          0.       
 acnqsmod            0.          0.          0.          0.       
 rbodymod            1.0000      1.0000      1.0000      1.0000   
 rgatemod            1.0000      1.0000      1.0000      1.0000   
 geomod              0.          0.          0.          0.       
 rgeomod             0.          0.          0.          0.       
 delvto              0.          0.          0.          0.       
 mulu0               1.0000      1.0000      1.0000      1.0000   
 delk1               0.          0.          0.          0.       
 delnfct             0.          0.          0.          0.       
 deltox              0.          0.          0.          0.       
 sa                  0.          0.          0.          0.       
 sb                  0.          0.          0.          0.       
 sd                  0.          0.          0.          0.       
 saeff               0.          0.          0.          0.       
 sbeff               0.          0.          0.          0.       
  
  
                                                                
 element name        7:miso     7:mmx4_b    7:mmx4     7:mmx3_b 
 drain               7:sbl      7:cmbl_b    7:cmbl     7:cmbl_b 
 gate                0:b0sae    0:vdd!      0:vdd!     0:vdd!   
 source              7:cmbl     0:vdd!      0:vdd!     0:vdd!   
 bulk                0:vdd!     0:vdd!      0:vdd!     0:vdd!   
 model               0:pmos     0:pmos      0:pmos     0:pmos   
 w eff             254.0000n  518.0000n   518.0000n  518.0000n  
 l eff              29.0000n   29.0000n    29.0000n   29.0000n  
 rd eff              0.         0.          0.         0.       
 rs eff              0.         0.          0.         0.       
 cdsat              22.3447a   44.0567a    44.0567a   44.0567a  
 cssat              22.3447a   44.0567a    44.0567a   44.0567a  
 capbd             313.1804a  582.4488a   582.4488a  582.4488a  
 capbs             260.4860a  477.0600a   477.0600a  477.0600a  
 temp               25.0000    25.0000     25.0000    25.0000   
 aic                                                            
 nf                  1.0000     1.0000      1.0000     1.0000   
 min                 0.         0.          0.         0.       
 rbdb               15.0000    15.0000     15.0000    15.0000   
 rbsb               15.0000    15.0000     15.0000    15.0000   
 rbpb                5.0000     5.0000      5.0000     5.0000   
 rbps               15.0000    15.0000     15.0000    15.0000   
 rbpd               15.0000    15.0000     15.0000    15.0000   
 trnqsmod            0.         0.          0.         0.       
 acnqsmod            0.         0.          0.         0.       
 rbodymod            1.0000     1.0000      1.0000     1.0000   
 rgatemod            1.0000     1.0000      1.0000     1.0000   
 geomod              0.         0.          0.         0.       
 rgeomod             0.         0.          0.         0.       
 delvto              0.         0.          0.         0.       
 mulu0               1.0000     1.0000      1.0000     1.0000   
 delk1               0.         0.          0.         0.       
 delnfct             0.         0.          0.         0.       
 deltox              0.         0.          0.         0.       
 sa                  0.         0.          0.         0.       
 sb                  0.         0.          0.         0.       
 sd                  0.         0.          0.         0.       
 saeff               0.         0.          0.         0.       
 sbeff               0.         0.          0.         0.       
  
  
                                                                  
 element name        7:mmx3     7:mmx2_b    7:mmx2     7:mmx_b    
 drain               7:cmbl     7:cmbl_b    7:cmbl     7:cmbl_b   
 gate                0:vdd!     0:vdd!      0:vdd!     0:b0sel_b0 
 source              0:vdd!     0:vdd!      0:vdd!     0:bl_b0    
 bulk                0:vdd!     0:vdd!      0:vdd!     0:vdd!     
 model               0:pmos     0:pmos      0:pmos     0:pmos     
 w eff             518.0000n  518.0000n   518.0000n  518.0000n    
 l eff              29.0000n   29.0000n    29.0000n   29.0000n    
 rd eff              0.         0.          0.         0.         
 rs eff              0.         0.          0.         0.         
 cdsat              44.0567a   44.0567a    44.0567a   44.0567a    
 cssat              44.0567a   44.0567a    44.0567a   44.0567a    
 capbd             582.4488a  582.4488a   582.4488a  582.4488a    
 capbs             477.0600a  477.0600a   477.0600a  477.0600a    
 temp               25.0000    25.0000     25.0000    25.0000     
 aic                                                              
 nf                  1.0000     1.0000      1.0000     1.0000     
 min                 0.         0.          0.         0.         
 rbdb               15.0000    15.0000     15.0000    15.0000     
 rbsb               15.0000    15.0000     15.0000    15.0000     
 rbpb                5.0000     5.0000      5.0000     5.0000     
 rbps               15.0000    15.0000     15.0000    15.0000     
 rbpd               15.0000    15.0000     15.0000    15.0000     
 trnqsmod            0.         0.          0.         0.         
 acnqsmod            0.         0.          0.         0.         
 rbodymod            1.0000     1.0000      1.0000     1.0000     
 rgatemod            1.0000     1.0000      1.0000     1.0000     
 geomod              0.         0.          0.         0.         
 rgeomod             0.         0.          0.         0.         
 delvto              0.         0.          0.         0.         
 mulu0               1.0000     1.0000      1.0000     1.0000     
 delk1               0.         0.          0.         0.         
 delnfct             0.         0.          0.         0.         
 deltox              0.         0.          0.         0.         
 sa                  0.         0.          0.         0.         
 sb                  0.         0.          0.         0.         
 sd                  0.         0.          0.         0.         
 saeff               0.         0.          0.         0.         
 sbeff               0.         0.          0.         0.         
  
  
                                                                 
 element name        7:mmx         7:mtail    7:m1       7:m2    
 drain               7:cmbl        7:tail     7:tail     7:sbl_b 
 gate                0:b0sel_b0    0:b0sae    7:sbl_b    7:sbl   
 source              0:bl0         0:0        7:sbl      7:tail  
 bulk                0:vdd!        0:0        0:0        0:0     
 model               0:pmos        0:nmos     0:nmos     0:nmos  
 w eff             518.0000n     166.0000n  122.0000n  122.0000n 
 l eff              29.0000n      29.0000n   29.0000n   29.0000n 
 rd eff              0.            0.         0.         0.      
 rs eff              0.            0.         0.         0.      
 cdsat              44.0567a      15.1073a   11.4887a   11.4887a 
 cssat              44.0567a      15.1073a   11.4887a   11.4887a 
 capbd             582.4488a     223.4243a  178.5462a  178.5462a 
 capbs             477.0600a     188.2947a  152.1990a  152.1990a 
 temp               25.0000       25.0000    25.0000    25.0000  
 aic                                                             
 nf                  1.0000        1.0000     1.0000     1.0000  
 min                 0.            0.         0.         0.      
 rbdb               15.0000       15.0000    15.0000    15.0000  
 rbsb               15.0000       15.0000    15.0000    15.0000  
 rbpb                5.0000        5.0000     5.0000     5.0000  
 rbps               15.0000       15.0000    15.0000    15.0000  
 rbpd               15.0000       15.0000    15.0000    15.0000  
 trnqsmod            0.            0.         0.         0.      
 acnqsmod            0.            0.         0.         0.      
 rbodymod            1.0000        1.0000     1.0000     1.0000  
 rgatemod            1.0000        1.0000     1.0000     1.0000  
 geomod              0.            0.         0.         0.      
 rgeomod             0.            0.         0.         0.      
 delvto              0.            0.         0.         0.      
 mulu0               1.0000        1.0000     1.0000     1.0000  
 delk1               0.            0.         0.         0.      
 delnfct             0.            0.         0.         0.      
 deltox              0.            0.         0.         0.      
 sa                  0.            0.         0.         0.      
 sb                  0.            0.         0.         0.      
 sd                  0.            0.         0.         0.      
 saeff               0.            0.         0.         0.      
 sbeff               0.            0.         0.         0.      
  
  
                                                                  
 element name       12:m1      12:m2      13:m1        13:m2      
 drain               0:b3sae    0:b3sae    1:net8       1:net8    
 gate                1:net10    1:net10    0:sel_b63    0:sel_b63 
 source              0:vdd!     0:0        0:vdd!       0:0       
 bulk                0:vdd!     0:0        0:vdd!       0:0       
 model               0:pmos     0:nmos     0:pmos       0:nmos    
 w eff             342.0000n  166.0000n  342.0000n    166.0000n   
 l eff              29.0000n   29.0000n   29.0000n     29.0000n   
 rd eff              0.         0.         0.           0.        
 rs eff              0.         0.         0.           0.        
 cdsat              29.5820a   15.1073a   29.5820a     15.1073a   
 cssat              29.5820a   15.1073a   29.5820a     15.1073a   
 capbd             402.9365a  223.4243a  402.9365a    223.4243a   
 capbs             332.6773a  188.2947a  332.6773a    188.2947a   
 temp               25.0000    25.0000    25.0000      25.0000    
 aic                                                              
 nf                  1.0000     1.0000     1.0000       1.0000    
 min                 0.         0.         0.           0.        
 rbdb               15.0000    15.0000    15.0000      15.0000    
 rbsb               15.0000    15.0000    15.0000      15.0000    
 rbpb                5.0000     5.0000     5.0000       5.0000    
 rbps               15.0000    15.0000    15.0000      15.0000    
 rbpd               15.0000    15.0000    15.0000      15.0000    
 trnqsmod            0.         0.         0.           0.        
 acnqsmod            0.         0.         0.           0.        
 rbodymod            1.0000     1.0000     1.0000       1.0000    
 rgatemod            1.0000     1.0000     1.0000       1.0000    
 geomod              0.         0.         0.           0.        
 rgeomod             0.         0.         0.           0.        
 delvto              0.         0.         0.           0.        
 mulu0               1.0000     1.0000     1.0000       1.0000    
 delk1               0.         0.         0.           0.        
 delnfct             0.         0.         0.           0.        
 deltox              0.         0.         0.           0.        
 sa                  0.         0.         0.           0.        
 sb                  0.         0.         0.           0.        
 sd                  0.         0.         0.           0.        
 saeff               0.         0.         0.           0.        
 sbeff               0.         0.         0.           0.        
  
  
                                                                
 element name       14:m2      14:m0       14:m3      14:m1     
 drain               1:net10    1:net10    14:mid_a    1:net10  
 gate                0:sae      0:block3    0:sae      0:block3 
 source              0:vdd!     0:vdd!      0:0       14:mid_a  
 bulk                0:vdd!     0:vdd!      0:0        0:0      
 model               0:pmos     0:pmos      0:nmos     0:nmos   
 w eff             166.0000n  166.0000n   166.0000n  166.0000n  
 l eff              29.0000n   29.0000n    29.0000n   29.0000n  
 rd eff              0.         0.          0.         0.       
 rs eff              0.         0.          0.         0.       
 cdsat              15.1073a   15.1073a    15.1073a   15.1073a  
 cssat              15.1073a   15.1073a    15.1073a   15.1073a  
 capbd             223.4243a  223.4243a   223.4243a  223.4243a  
 capbs             188.2947a  188.2947a   188.2947a  188.2947a  
 temp               25.0000    25.0000     25.0000    25.0000   
 aic                                                            
 nf                  1.0000     1.0000      1.0000     1.0000   
 min                 0.         0.          0.         0.       
 rbdb               15.0000    15.0000     15.0000    15.0000   
 rbsb               15.0000    15.0000     15.0000    15.0000   
 rbpb                5.0000     5.0000      5.0000     5.0000   
 rbps               15.0000    15.0000     15.0000    15.0000   
 rbpd               15.0000    15.0000     15.0000    15.0000   
 trnqsmod            0.         0.          0.         0.       
 acnqsmod            0.         0.          0.         0.       
 rbodymod            1.0000     1.0000      1.0000     1.0000   
 rgatemod            1.0000     1.0000      1.0000     1.0000   
 geomod              0.         0.          0.         0.       
 rgeomod             0.         0.          0.         0.       
 delvto              0.         0.          0.         0.       
 mulu0               1.0000     1.0000      1.0000     1.0000   
 delk1               0.         0.          0.         0.       
 delnfct             0.         0.          0.         0.       
 deltox              0.         0.          0.         0.       
 sa                  0.         0.          0.         0.       
 sb                  0.         0.          0.         0.       
 sd                  0.         0.          0.         0.       
 saeff               0.         0.          0.         0.       
 sbeff               0.         0.          0.         0.       
  
  
                                                                        
 element name       15:m2         15:m0         15:m3       15:m1       
 drain               0:b3sel_b6    0:b3sel_b6   15:mid_a     0:b3sel_b6 
 gate                0:block3      1:net8        0:block3    1:net8     
 source              0:vdd!        0:vdd!        0:0        15:mid_a    
 bulk                0:vdd!        0:vdd!        0:0         0:0        
 model               0:pmos        0:pmos        0:nmos      0:nmos     
 w eff             166.0000n     166.0000n     166.0000n   166.0000n    
 l eff              29.0000n      29.0000n      29.0000n    29.0000n    
 rd eff              0.            0.            0.          0.         
 rs eff              0.            0.            0.          0.         
 cdsat              15.1073a      15.1073a      15.1073a    15.1073a    
 cssat              15.1073a      15.1073a      15.1073a    15.1073a    
 capbd             223.4243a     223.4243a     223.4243a   223.4243a    
 capbs             188.2947a     188.2947a     188.2947a   188.2947a    
 temp               25.0000       25.0000       25.0000     25.0000     
 aic                                                                    
 nf                  1.0000        1.0000        1.0000      1.0000     
 min                 0.            0.            0.          0.         
 rbdb               15.0000       15.0000       15.0000     15.0000     
 rbsb               15.0000       15.0000       15.0000     15.0000     
 rbpb                5.0000        5.0000        5.0000      5.0000     
 rbps               15.0000       15.0000       15.0000     15.0000     
 rbpd               15.0000       15.0000       15.0000     15.0000     
 trnqsmod            0.            0.            0.          0.         
 acnqsmod            0.            0.            0.          0.         
 rbodymod            1.0000        1.0000        1.0000      1.0000     
 rgatemod            1.0000        1.0000        1.0000      1.0000     
 geomod              0.            0.            0.          0.         
 rgeomod             0.            0.            0.          0.         
 delvto              0.            0.            0.          0.         
 mulu0               1.0000        1.0000        1.0000      1.0000     
 delk1               0.            0.            0.          0.         
 delnfct             0.            0.            0.          0.         
 deltox              0.            0.            0.          0.         
 sa                  0.            0.            0.          0.         
 sb                  0.            0.            0.          0.         
 sd                  0.            0.            0.          0.         
 saeff               0.            0.            0.          0.         
 sbeff               0.            0.            0.          0.         
  
  
                                                                
 element name       16:m1      16:m2      17:m1       17:m2     
 drain               0:b0sae    0:b0sae    2:net8      2:net8   
 gate                2:net10    2:net10    0:sel_b0    0:sel_b0 
 source              0:vdd!     0:0        0:vdd!      0:0      
 bulk                0:vdd!     0:0        0:vdd!      0:0      
 model               0:pmos     0:nmos     0:pmos      0:nmos   
 w eff             342.0000n  166.0000n  342.0000n   166.0000n  
 l eff              29.0000n   29.0000n   29.0000n    29.0000n  
 rd eff              0.         0.         0.          0.       
 rs eff              0.         0.         0.          0.       
 cdsat              29.5820a   15.1073a   29.5820a    15.1073a  
 cssat              29.5820a   15.1073a   29.5820a    15.1073a  
 capbd             402.9365a  223.4243a  402.9365a   223.4243a  
 capbs             332.6773a  188.2947a  332.6773a   188.2947a  
 temp               25.0000    25.0000    25.0000     25.0000   
 aic                                                            
 nf                  1.0000     1.0000     1.0000      1.0000   
 min                 0.         0.         0.          0.       
 rbdb               15.0000    15.0000    15.0000     15.0000   
 rbsb               15.0000    15.0000    15.0000     15.0000   
 rbpb                5.0000     5.0000     5.0000      5.0000   
 rbps               15.0000    15.0000    15.0000     15.0000   
 rbpd               15.0000    15.0000    15.0000     15.0000   
 trnqsmod            0.         0.         0.          0.       
 acnqsmod            0.         0.         0.          0.       
 rbodymod            1.0000     1.0000     1.0000      1.0000   
 rgatemod            1.0000     1.0000     1.0000      1.0000   
 geomod              0.         0.         0.          0.       
 rgeomod             0.         0.         0.          0.       
 delvto              0.         0.         0.          0.       
 mulu0               1.0000     1.0000     1.0000      1.0000   
 delk1               0.         0.         0.          0.       
 delnfct             0.         0.         0.          0.       
 deltox              0.         0.         0.          0.       
 sa                  0.         0.         0.          0.       
 sb                  0.         0.         0.          0.       
 sd                  0.         0.         0.          0.       
[...]
  vgs          1.0000    -999.9836m     16.3997u      0.           1.0000 
  vds         12.9926u    -28.3550u    999.9716m   -999.9870m     12.9926u
  vbs          0.           0.           0.           0.           0.     
  vth        370.5948m   -310.7610m    302.3786m   -225.6981m    370.5948m
  vdsat      337.0969m   -504.4551m     39.8318m    -46.2012m    337.0969m
  vod        629.4052m   -689.2226m   -302.3622m    225.6981m    629.4052m
  beta         3.6023m    754.2349u      5.0666m    994.0963u      3.6023m
  gam eff    441.0000m    394.0000m    441.0000m    394.0000m    441.0000m
  gm           3.6578n      9.9238n    191.9955n    239.5165n      3.6578n
  gds        724.9180u    415.2792u     14.3506n     22.9701n    724.9180u
  gmb          1.9267n      3.9949n     54.4729n     53.7983n      1.9267n
  cdtot      429.8705a    823.5055a    220.4435a    408.0361a    429.8705a
  cgtot      284.2254a    604.5061a    137.7696a    274.7471a    284.2254a
  cstot      285.7372a    540.8384a    255.0977a    469.8177a    285.7372a
  cbtot      441.3850a    787.0478a    395.0848a    704.5957a    441.3850a
  cgs        154.9420a    339.7565a     66.4285a    136.4940a    154.9420a
  cgd        131.4016a    267.3296a     42.6866a     87.5249a    131.4016a



 subckt     xvwl_mux.x   xvwl_mux.x   xvwl_mux.x   xvwl_mux.x   xvwl_mux.x
 element  138:m1       138:m2       139:m1       139:m2       140:m1      
 model      0:pmos       0:nmos       0:pmos       0:nmos       0:pmos    
 region         Linear       Cutoff       Cutoff       Linear       Linear
  id         -11.7756n      7.6241n     -9.4437n      9.4187n    -11.7756n
  ibs       -1.387e-24    9.392e-25   -9.401e-25    1.019e-24   -1.387e-24
  ibd         28.4001a   -999.9927f      1.0000p    -13.0032a     28.4001a
  vgs       -999.9836m     16.3997u      0.           1.0000    -999.9836m
  vds        -28.3550u    999.9716m   -999.9870m     12.9926u    -28.3550u
  vbs          0.           0.           0.           0.           0.     
  vth       -310.7610m    302.3786m   -225.6981m    370.5948m   -310.7610m
  vdsat     -504.4551m     39.8318m    -46.2012m    337.0969m   -504.4551m
  vod       -689.2226m   -302.3622m    225.6981m    629.4052m   -689.2226m
  beta       754.2349u      5.0666m    994.0963u      3.6023m    754.2349u
  gam eff    394.0000m    441.0000m    394.0000m    441.0000m    394.0000m
  gm           9.9238n    191.9955n    239.5165n      3.6578n      9.9238n
  gds        415.2792u     14.3506n     22.9701n    724.9180u    415.2792u
  gmb          3.9949n     54.4729n     53.7983n      1.9267n      3.9949n
  cdtot      823.5055a    220.4435a    408.0361a    429.8705a    823.5055a
  cgtot      604.5061a    137.7696a    274.7471a    284.2254a    604.5061a
  cstot      540.8384a    255.0977a    469.8177a    285.7372a    540.8384a
  cbtot      787.0478a    395.0848a    704.5957a    441.3850a    787.0478a
  cgs        339.7565a     66.4285a    136.4940a    154.9420a    339.7565a
  cgd        267.3296a     42.6866a     87.5249a    131.4016a    267.3296a



 subckt     xvwl_mux.x   xvwl_mux.x   xvwl_mux.x   xvwl_mux.x   xvwl_mux.x
 element  140:m2       141:m1       141:m2       142:m1       142:m2      
 model      0:nmos       0:pmos       0:nmos       0:pmos       0:nmos    
 region         Cutoff       Cutoff       Linear       Linear       Cutoff
  id           7.6241n     -9.4437n      9.4187n    -11.7756n      7.6241n
  ibs        9.392e-25   -9.401e-25    1.019e-24   -1.387e-24    9.392e-25
  ibd       -999.9927f      1.0000p    -13.0032a     28.4001a   -999.9927f
  vgs         16.3997u      0.           1.0000    -999.9836m     16.3997u
  vds        999.9716m   -999.9870m     12.9926u    -28.3550u    999.9716m
  vbs          0.           0.           0.           0.           0.     
  vth        302.3786m   -225.6981m    370.5948m   -310.7610m    302.3786m
  vdsat       39.8318m    -46.2012m    337.0969m   -504.4551m     39.8318m
  vod       -302.3622m    225.6981m    629.4052m   -689.2226m   -302.3622m
  beta         5.0666m    994.0963u      3.6023m    754.2349u      5.0666m
  gam eff    441.0000m    394.0000m    441.0000m    394.0000m    441.0000m
  gm         191.9955n    239.5165n      3.6578n      9.9238n    191.9955n
  gds         14.3506n     22.9701n    724.9180u    415.2792u     14.3506n
  gmb         54.4729n     53.7983n      1.9267n      3.9949n     54.4729n
  cdtot      220.4435a    408.0361a    429.8705a    823.5055a    220.4435a
  cgtot      137.7696a    274.7471a    284.2254a    604.5061a    137.7696a
  cstot      255.0977a    469.8177a    285.7372a    540.8384a    255.0977a
  cbtot      395.0848a    704.5957a    441.3850a    787.0478a    395.0848a
  cgs         66.4285a    136.4940a    154.9420a    339.7565a     66.4285a
  cgd         42.6866a     87.5249a    131.4016a    267.3296a     42.6866a



 subckt     xvwl_mux.x   xvwl_mux.x   xvwl_mux.x   xvwl_mux.x   xvwl_mux.x
 element  143:m1       143:m2       144:m1       144:m2       145:m1      
 model      0:pmos       0:nmos       0:pmos       0:nmos       0:pmos    
 region         Cutoff       Linear       Linear       Cutoff       Cutoff
  id          -9.4437n      9.4187n    -11.7756n      7.6241n     -9.4437n
  ibs       -9.401e-25    1.019e-24   -1.387e-24    9.392e-25   -9.401e-25
  ibd          1.0000p    -13.0032a     28.4001a   -999.9927f      1.0000p
  vgs          0.           1.0000    -999.9836m     16.3997u      0.     
  vds       -999.9870m     12.9926u    -28.3550u    999.9716m   -999.9870m
  vbs          0.           0.           0.           0.           0.     
  vth       -225.6981m    370.5948m   -310.7610m    302.3786m   -225.6981m
  vdsat      -46.2012m    337.0969m   -504.4551m     39.8318m    -46.2012m
  vod        225.6981m    629.4052m   -689.2226m   -302.3622m    225.6981m
  beta       994.0963u      3.6023m    754.2349u      5.0666m    994.0963u
  gam eff    394.0000m    441.0000m    394.0000m    441.0000m    394.0000m
  gm         239.5165n      3.6578n      9.9238n    191.9955n    239.5165n
  gds         22.9701n    724.9180u    415.2792u     14.3506n     22.9701n
  gmb         53.7983n      1.9267n      3.9949n     54.4729n     53.7983n
  cdtot      408.0361a    429.8705a    823.5055a    220.4435a    408.0361a
  cgtot      274.7471a    284.2254a    604.5061a    137.7696a    274.7471a
  cstot      469.8177a    285.7372a    540.8384a    255.0977a    469.8177a
  cbtot      704.5957a    441.3850a    787.0478a    395.0848a    704.5957a
  cgs        136.4940a    154.9420a    339.7565a     66.4285a    136.4940a
  cgd         87.5249a    131.4016a    267.3296a     42.6866a     87.5249a



 subckt     xvwl_mux.x   xvwl_mux.x   xvwl_mux.x   xvwl_mux.x   xvwl_mux.x
 element  145:m2       146:m1       146:m2       147:m1       147:m2      
 model      0:nmos       0:pmos       0:nmos       0:pmos       0:nmos    
 region         Linear       Linear       Cutoff       Cutoff       Linear
  id           9.4187n    -11.7756n      7.6241n     -9.4437n      9.4187n
  ibs        1.019e-24   -1.387e-24    9.392e-25   -9.401e-25    1.019e-24
  ibd        -13.0032a     28.4001a   -999.9927f      1.0000p    -13.0032a
  vgs          1.0000    -999.9836m     16.3997u      0.           1.0000 
  vds         12.9926u    -28.3550u    999.9716m   -999.9870m     12.9926u
  vbs          0.           0.           0.           0.           0.     
  vth        370.5948m   -310.7610m    302.3786m   -225.6981m    370.5948m
  vdsat      337.0969m   -504.4551m     39.8318m    -46.2012m    337.0969m
  vod        629.4052m   -689.2226m   -302.3622m    225.6981m    629.4052m
  beta         3.6023m    754.2349u      5.0666m    994.0963u      3.6023m
  gam eff    441.0000m    394.0000m    441.0000m    394.0000m    441.0000m
  gm           3.6578n      9.9238n    191.9955n    239.5165n      3.6578n
  gds        724.9180u    415.2792u     14.3506n     22.9701n    724.9180u
  gmb          1.9267n      3.9949n     54.4729n     53.7983n      1.9267n
  cdtot      429.8705a    823.5055a    220.4435a    408.0361a    429.8705a
  cgtot      284.2254a    604.5061a    137.7696a    274.7471a    284.2254a
  cstot      285.7372a    540.8384a    255.0977a    469.8177a    285.7372a
  cbtot      441.3850a    787.0478a    395.0848a    704.5957a    441.3850a
  cgs        154.9420a    339.7565a     66.4285a    136.4940a    154.9420a
  cgd        131.4016a    267.3296a     42.6866a     87.5249a    131.4016a



 subckt     xclk_gen.x   xclk_gen.x   xclk_gen.x   xclk_gen.x   xclk_gen.x
 element  151:m_0      151:m_1      152:m_0      152:m_1      153:m_0     
 model      0:nmos       0:pmos       0:nmos       0:pmos       0:nmos    
 region         Cutoff       Linear       Linear       Cutoff       Cutoff
  id           7.6210n    -16.0612n     54.8624n    -57.2547n    121.9947n
  ibs        9.392e-25   -2.103e-24    4.072e-24   -3.765e-24    1.503e-23
  ibd       -999.9954f     25.6407a    -75.7425a      4.0002p    -15.9999p
  vgs          0.          -1.0000     999.9744m    -25.5802u     18.9202u
  vds        999.9744m    -25.5802u     18.9202u   -999.9811m    999.9744m
  vbs          0.           0.           0.           0.           0.     
  vth        302.3784m   -310.7612m    370.5944m   -225.6986m    302.3784m
  vdsat       39.8318m   -504.5937m    337.0862m    -46.2016m     39.8318m
  vod       -302.3784m   -689.2388m    629.3800m    225.6730m   -302.3595m
  beta         5.0666m      1.1424m     14.4096m      6.0227m     81.0664m
  gam eff    441.0000m    394.0000m    441.0000m    394.0000m    441.0000m
  gm         191.9183n     13.5110n     21.3085n      1.4521u      3.0721u
  gds         14.3449n    627.8611u      2.8996m    139.2593n    229.6257n
  gmb         54.4515n      5.4389n     11.2233n    326.1537n    871.6237n
  cdtot      220.4434a      1.2194f      1.7195f      2.3833f      3.5271f
  cgtot      137.7687a    915.2162a      1.1369f      1.6630f      2.2043f
  cstot      255.0966a    792.2893a      1.1430f      2.7389f      4.0816f
  cbtot      395.0850a      1.1369f      1.7655f      4.0710f      6.3214f
  cgs         66.4274a    514.6013a    619.7720a    826.9676a      1.0629f
  cgd         42.6865a    404.9048a    525.6006a    530.2694a    682.9857a



 subckt     xclk_gen.x   xclk_gen.x   xclk_gen.x   xa0_gen.xg   xa0_gen.xg
 element  153:m_1      154:m_0      154:m_1      155:m_0      155:m_1     
 model      0:pmos       0:nmos       0:pmos       0:nmos       0:pmos    
 region         Linear       Linear       Cutoff       Cutoff       Linear
  id        -257.0380n    986.5605n   -916.0696n      7.6210n    -16.0612n
  ibs       -3.364e-23    6.516e-23   -6.024e-23    9.392e-25   -2.103e-24
  ibd        410.3531a     -1.3620f     64.0026p   -999.9954f     25.6407a
  vgs       -999.9811m    999.9744m    -25.5865u      0.          -1.0000 
  vds        -25.5865u     21.2646u   -999.9787m    999.9744m    -25.5802u
  vbs          0.           0.           0.           0.           0.     
  vth       -310.7612m    370.5942m   -225.6988m    302.3784m   -310.7612m
  vdsat     -504.5826m    337.0863m    -46.2016m     39.8318m   -504.5937m
  vod       -689.2199m    629.3802m    225.6732m   -302.3784m   -689.2388m
  beta        18.2781m    230.5529m     96.3633m      5.0666m      1.1424m
  gam eff    394.0000m    441.0000m    394.0000m    441.0000m    394.0000m
  gm         216.2348n    383.1837n     23.2334u    191.9183n     13.5110n
  gds         10.0456m     46.3934m      2.2281u     14.3449n    627.8611u
  gmb         87.0444n    201.8231n      5.2184u     54.4515n      5.4389n
  cdtot       19.5104f     27.5114f     38.1333f    220.4434a      1.2194f
  cgtot       14.6434f     18.1904f     26.6086f    137.7687a    915.2162a
  cstot       12.6766f     18.2873f     43.8225f    255.0966a    792.2893a
  cbtot       18.1907f     28.2486f     65.1361f    395.0850a      1.1369f
  cgs          8.2336f      9.9164f     13.2315f     66.4274a    514.6013a
  cgd          6.4785f      8.4096f      8.4843f     42.6865a    404.9048a



 subckt     xa0_gen.xg   xa0_gen.xg   xa0_gen.xg   xa0_gen.xg   xa0_gen.xg
 element  156:m_0      156:m_1      157:m_0      157:m_1      158:m_0     
 model      0:nmos       0:pmos       0:nmos       0:pmos       0:nmos    
 region         Linear       Cutoff       Cutoff       Linear       Linear
  id          54.8624n    -57.2547n    121.9947n   -257.0380n    986.5605n
  ibs        4.072e-24   -3.765e-24    1.503e-23   -3.364e-23    6.516e-23
  ibd        -75.7425a      4.0002p    -15.9999p    410.3531a     -1.3620f
  vgs        999.9744m    -25.5802u     18.9202u   -999.9811m    999.9744m
  vds         18.9202u   -999.9811m    999.9744m    -25.5865u     21.2646u
  vbs          0.           0.           0.           0.           0.     
  vth        370.5944m   -225.6986m    302.3784m   -310.7612m    370.5942m
  vdsat      337.0862m    -46.2016m     39.8318m   -504.5826m    337.0863m
  vod        629.3800m    225.6730m   -302.3595m   -689.2199m    629.3802m
  beta        14.4096m      6.0227m     81.0664m     18.2781m    230.5529m
  gam eff    441.0000m    394.0000m    441.0000m    394.0000m    441.0000m
  gm          21.3085n      1.4521u      3.0721u    216.2348n    383.1837n
  gds          2.8996m    139.2593n    229.6257n     10.0456m     46.3934m
  gmb         11.2233n    326.1537n    871.6237n     87.0444n    201.8231n
  cdtot        1.7195f      2.3833f      3.5271f     19.5104f     27.5114f
  cgtot        1.1369f      1.6630f      2.2043f     14.6434f     18.1904f
  cstot        1.1430f      2.7389f      4.0816f     12.6766f     18.2873f
  cbtot        1.7655f      4.0710f      6.3214f     18.1907f     28.2486f
  cgs        619.7720a    826.9676a      1.0629f      8.2336f      9.9164f
  cgd        525.6006a    530.2694a    682.9857a      6.4785f      8.4096f



 subckt     xa0_gen.xg   xa255_gen.   xa255_gen.   xa255_gen.   xa255_gen.
 element  158:m_1      159:m_0      159:m_1      160:m_0      160:m_1     
 model      0:pmos       0:nmos       0:pmos       0:nmos       0:pmos    
 region         Cutoff       Cutoff       Linear       Linear       Cutoff
  id        -916.0696n      7.6210n    -16.0612n     54.8624n    -57.2547n
  ibs       -6.024e-23    9.392e-25   -2.103e-24    4.072e-24   -3.765e-24
  ibd         64.0026p   -999.9954f     25.6407a    -75.7425a      4.0002p
  vgs        -25.5865u      0.          -1.0000     999.9744m    -25.5802u
  vds       -999.9787m    999.9744m    -25.5802u     18.9202u   -999.9811m
  vbs          0.           0.           0.           0.           0.     
  vth       -225.6988m    302.3784m   -310.7612m    370.5944m   -225.6986m
  vdsat      -46.2016m     39.8318m   -504.5937m    337.0862m    -46.2016m
  vod        225.6732m   -302.3784m   -689.2388m    629.3800m    225.6730m
  beta        96.3633m      5.0666m      1.1424m     14.4096m      6.0227m
  gam eff    394.0000m    441.0000m    394.0000m    441.0000m    394.0000m
  gm          23.2334u    191.9183n     13.5110n     21.3085n      1.4521u
  gds          2.2281u     14.3449n    627.8611u      2.8996m    139.2593n
  gmb          5.2184u     54.4515n      5.4389n     11.2233n    326.1537n
  cdtot       38.1333f    220.4434a      1.2194f      1.7195f      2.3833f
  cgtot       26.6086f    137.7687a    915.2162a      1.1369f      1.6630f
  cstot       43.8225f    255.0966a    792.2893a      1.1430f      2.7389f
  cbtot       65.1361f    395.0850a      1.1369f      1.7655f      4.0710f
  cgs         13.2315f     66.4274a    514.6013a    619.7720a    826.9676a
  cgd          8.4843f     42.6865a    404.9048a    525.6006a    530.2694a



 subckt     xa255_gen.   xa255_gen.   xa255_gen.   xa255_gen.
 element  161:m_0      161:m_1      162:m_0      162:m_1     
 model      0:nmos       0:pmos       0:nmos       0:pmos    
 region         Cutoff       Linear       Linear       Cutoff
  id         121.9947n   -257.0380n    986.5605n   -916.0696n
  ibs        1.503e-23   -3.364e-23    6.516e-23   -6.024e-23
  ibd        -15.9999p    410.3531a     -1.3620f     64.0026p
  vgs         18.9202u   -999.9811m    999.9744m    -25.5865u
  vds        999.9744m    -25.5865u     21.2646u   -999.9787m
  vbs          0.           0.           0.           0.     
  vth        302.3784m   -310.7612m    370.5942m   -225.6988m
  vdsat       39.8318m   -504.5826m    337.0863m    -46.2016m
  vod       -302.3595m   -689.2199m    629.3802m    225.6732m
  beta        81.0664m     18.2781m    230.5529m     96.3633m
  gam eff    441.0000m    394.0000m    441.0000m    394.0000m
  gm           3.0721u    216.2348n    383.1837n     23.2334u
  gds        229.6257n     10.0456m     46.3934m      2.2281u
  gmb        871.6237n     87.0444n    201.8231n      5.2184u
  cdtot        3.5271f     19.5104f     27.5114f     38.1333f
  cgtot        2.2043f     14.6434f     18.1904f     26.6086f
  cstot        4.0816f     12.6766f     18.2873f     43.8225f
  cbtot        6.3214f     18.1907f     28.2486f     65.1361f
  cgs          1.0629f      8.2336f      9.9164f     13.2315f
  cgd        682.9857a      6.4785f      8.4096f      8.4843f



 ******  
 part 2

  ******  transient analysis tnom=  25.000 temp=  27.000 *****
 wl0_rise= 212.6472p  targ= 780.7658p   trig= 568.1186p
 wl0_width= 514.7480p  targ=   1.2955n   trig= 780.7658p
 wl0_fall= 227.1466p  targ=   1.2955n   trig=   1.0684n
 wl1_rise= 212.7789p  targ=   1.7809n   trig=   1.5681n
 wl1_fall= 227.0827p  targ=   2.2955n   trig=   2.0684n
 bl0_split= 197.0530m    at=   1.1979n
             from= 500.0000p    to=   1.5000n
 bl1_split=-131.3315u    at= 550.0000p
             from= 500.0000p    to=   1.5000n
 bl_pc_overlap=   1.0855n  targ=   1.2955n   trig= 210.0000p
 bl63_pc_overlap=   1.0855n  targ=   2.2955n   trig=   1.2100n
 clk-out0= 441.3986p  targ=   1.0095n   trig= 568.1186p
 precharge=  51.7238p  targ=   1.2617n   trig=   1.2100n
 sae-out0=  84.5172p  targ=   1.0095n   trig= 925.0000p
 out0-width= 379.7261p  targ=   1.3892n   trig=   1.0095n

          ***** job concluded
1****** HSPICE -- F-2011.09-SP2 32-BIT (Feb 27 2012) linux ******               
 ******  
 part 2

  ******  job statistics summary tnom=  25.000 temp=  27.000 *****
  
  
 ******  Machine Information  ******
 CPU:
 model name	: Intel(R) Core(TM)2 Duo CPU     E8500  @ 3.16GHz
 cpu MHz	: 3158.882
  
 OS:
 Linux version 3.2.0-30-generic (buildd@batsu) (gcc version 4.6.3 (Ubuntu/Linaro
  4.6.3-1ubuntu5) ) #48-Ubuntu SMP Fri Aug 24 16:52:48 UTC 2012


  ******  HSPICE Threads Information  ******

  Command Line Threads Count :     1
  Available CPU Count        :     2
  Actual Threads Count       :     1


  ******  Circuit Statistics  ******
  # nodes       =    2325 # elements   =     631
  # resistors   =       1 # capacitors =      54 # inductors   =       0
  # mutual_inds =       0 # vccs       =       0 # vcvs        =       3
  # cccs        =       6 # ccvs       =       0 # volt_srcs   =      53
  # curr_srcs   =       0 # diodes     =       0 # bjts        =       0
  # jfets       =       0 # mosfets    =     514 # U elements  =       0
  # T elements  =       0 # W elements =       0 # B elements  =       0
  # S elements  =       0 # P elements =       0 # va device   =       0
  # vector_srcs =       0


  ******  Runtime Statistics (seconds)  ******

  analysis           time    # points   tot. iter  conv.iter
  op point           2.44           1         785
  transient         29.44       33334       43260        5119 rev=       677
  readin             0.00
  errchk             0.08
  setup              0.04
  output             0.00


           peak memory used         94.92 megabytes
           total cpu time           31.98 seconds
           total elapsed time       33.32 seconds
           job started at     19:24:09 03/13/2013
           job ended   at     19:24:43 03/13/2013


 lic: Release hspice token(s) 
