Using: /usr/class/ee/synopsys/hspice/F-2011.09-SP2/hspice/linux/hspice part2_decoder_Blocked_Slowed_Switched_WR_Voltages.hsp
 ****** HSPICE -- F-2011.09-SP2 32-BIT (Feb 27 2012) linux ******               
  Copyright (C) 2011 Synopsys, Inc. All Rights Reserved.                        
  Unpublished-rights reserved under US copyright laws.
  This program is protected by law and is subject to the
  terms and conditions of the license agreement from Synopsys.
  Use of this program is your acceptance to be bound by the
  license agreement. HSPICE is the trademark of Synopsys, Inc.
  Input File: part2_decoder_Blocked_Slowed_Switched_WR_Voltages.hsp             
  Command line options: part2_decoder_Blocked_Slowed_Switched_WR_Voltages.hsp
 lic:  
 lic: FLEXlm: v10.8 
 lic: USER:   veharvey             HOSTNAME: myth16 
 lic: HOSTID: 001ec92f9f2b         PID:      8995 
 lic: Using FLEXlm license file: 
 lic: 27000@cadlic0.stanford.edu 
 lic: Checkout 1 hspice 
 lic: License/Maintenance for hspice will expire on 16-nov-2013/2013.03 
 lic: 2(in_use)/100(total) FLOATING license(s) on SERVER cadlic0.stanford.edu 
 lic:   
 Init: read install configuration file: /usr/class/ee/synopsys/hspice/F-2011.09-SP2/hspice/meta.cfg

 **warning**  runlvl smaller than 5, reset to 5  when accurate turned on
 scientific notation:
 a=10**-18  f=10**-15  p=10**-12  n=10**-9  u=10**-6
 m=10**-3   k=10**3    x=10**6    g=10**9 

 **warning**  runlvl smaller than 5, reset to 5  when accurate turned on
1****** HSPICE -- F-2011.09-SP2 32-BIT (Feb 27 2012) linux ******               
 ******  
 part 2

  ******  circuit name directory
 circuit number to circuit name directory
   number circuitname                     definition         multiplier
        0 main circuit
        1 xsense63_in.                    blocked_sense_inputs
                                                                 1.00 
        2 xsense0_in.                     blocked_sense_inputs
                                                                 1.00 
        3 xblock_decoder.                 block_decoder      1.00 
        4 xarray.                         array_blocked_wordline_4
                                                                 1.00 
        5 xdecoder.                       decoder            1.00 
        6 xsense63.                       sense              1.00 
        7 xsense0.                        sense              1.00 
        8 xi29.                           ck_sae_dummy       1.00 
        9 xvwl_mux.                       vwl_mux_array      1.00 
       10 xi31.                           ck_sel_b_dummy     1.00 
       11 xi30.                           ck_sel_b_dummy     1.00 
       12 xi32.                           ck_sapc_b_dummy    1.00 
       13 xi33.                           ck_blpc_b_dummy    1.00 
       14 xclk_gen.                       clk_gen            1.00 
       15 xa0_gen.                        a0_gen             1.00 
       16 xa255_gen.                      a255_gen           1.00 
       17 xsense63_in.xu5.                inv_pcell_0123     1.00 
       18 xsense63_in.xu0.                inv_pcell_0123     1.00 
       19 xsense63_in.xu3.                nand_pcell_45      1.00 
       20 xsense63_in.xu2.                nand_pcell_45      1.00 
       21 xsense0_in.xu5.                 inv_pcell_0123     1.00 
       22 xsense0_in.xu0.                 inv_pcell_0123     1.00 
       23 xsense0_in.xu3.                 nand_pcell_45      1.00 
       24 xsense0_in.xu2.                 nand_pcell_45      1.00 
       25 xblock_decoder.xu13.            nand_pcell_3       1.00 
       26 xblock_decoder.xu12.            nand_pcell_3       1.00 
       27 xblock_decoder.xu11.            nand_pcell_3       1.00 
       28 xblock_decoder.xu10.            nand_pcell_3       1.00 
       29 xblock_decoder.xu8.             nand_pcell_3       1.00 
       30 xblock_decoder.xu3.             nand_pcell_3       1.00 
       31 xblock_decoder.xu4.             nand_pcell_3       1.00 
       32 xblock_decoder.xu7.             nand_pcell_3       1.00 
       33 xarray.xmctr.                   mc                 1.00 
       34 xarray.xmcmr.                   mc               254.00 
       35 xarray.xmcbr.                   mc                 1.00 
       36 xarray.xmctb3dum.               mc                63.00 
       37 xarray.xmcmb3dum.               mc                16.00k
       38 xarray.xmcbb3dum.               mc                63.00 
       39 xarray.xmcbb2dum.               mc                64.00 
       40 xarray.xmctb2dum.               mc                64.00 
       41 xarray.xmcmb2dum.               mc                16.26k
       42 xarray.xmctb1dum.               mc                64.00 
       43 xarray.xmcbb0dum.               mc                63.00 
       44 xarray.xmcbl.                   mc                 1.00 
       45 xarray.xmcml.                   mc               254.00 
       46 xarray.xmcmb0dum.               mc                16.00k
       47 xarray.xmcmb1dum.               mc                16.26k
       48 xarray.xmcbb1dum.               mc                64.00 
       49 xarray.xmctb0dum.               mc                63.00 
       50 xarray.xmctl.                   mc                 1.00 
       51 xarray.xwriter.                 write              1.00 
       52 xarray.xwriteb3dum.             write             63.00 
       53 xarray.xwriteb1dum.             write             64.00 
       54 xarray.xwriteb2dum.             write             64.00 
       55 xarray.xwriteb0dum.             write             63.00 
       56 xarray.xwritel.                 write              1.00 
       57 xdecoder.xpredecoder416.        predecode_416      1.00 
       58 xdecoder.xdecoder_stage.        decode_stage       1.00 
       59 xdecoder.xpredecoder24.         predecode_24       1.00 
       60 xsense63.xu1.                   inv_pcell_11       1.00 
       61 xsense63.xu0.                   inv_pcell_11       1.00 
       62 xsense63.xu3.                   inv_pcell_12       1.00 
       63 xsense63.xu2.                   inv_pcell_12       1.00 
       64 xsense0.xu1.                    inv_pcell_11       1.00 
       65 xsense0.xu0.                    inv_pcell_11       1.00 
       66 xsense0.xu3.                    inv_pcell_12       1.00 
       67 xsense0.xu2.                    inv_pcell_12       1.00 
       68 xi29.xu41.                      inv_pcell_0123     1.00 
       69 xi29.xu40.                      inv_pcell_0123     1.00 
       70 xi29.xu39.                      inv_pcell_0123     1.00 
       71 xi29.xu38.                      inv_pcell_0123     1.00 
       72 xi29.xu37.                      inv_pcell_0123     1.00 
       73 xi29.xu36.                      inv_pcell_0123     1.00 
       74 xi29.xu35.                      inv_pcell_0123     1.00 
       75 xi29.xu34.                      inv_pcell_0123     1.00 
       76 xi29.xu33.                      inv_pcell_0123     1.00 
       77 xi29.xu32.                      inv_pcell_0123     1.00 
       78 xi29.xu31.                      inv_pcell_0123     1.00 
       79 xi29.xu30.                      inv_pcell_0123     1.00 
       80 xi29.xu29.                      inv_pcell_0123     1.00 
       81 xi29.xu28.                      inv_pcell_0123     1.00 
       82 xi29.xu27.                      inv_pcell_0123     1.00 
       83 xi29.xu26.                      inv_pcell_0123     1.00 
       84 xi29.xu25.                      inv_pcell_0123     1.00 
       85 xi29.xu24.                      inv_pcell_0123     1.00 
       86 xi29.xu23.                      inv_pcell_0123     1.00 
       87 xi29.xu22.                      inv_pcell_0123     1.00 
       88 xi29.xu21.                      inv_pcell_0123     1.00 
       89 xi29.xu20.                      inv_pcell_0123     1.00 
       90 xi29.xu19.                      inv_pcell_0123     1.00 
       91 xi29.xu18.                      inv_pcell_0123     1.00 
       92 xi29.xu17.                      inv_pcell_0123     1.00 
       93 xi29.xu16.                      inv_pcell_0123     1.00 
       94 xi29.xu15.                      inv_pcell_0123     1.00 
       95 xi29.xu14.                      inv_pcell_0123     1.00 
       96 xi29.xu13.                      inv_pcell_0123     1.00 
       97 xi29.xu12.                      inv_pcell_0123     1.00 
       98 xi29.xu11.                      inv_pcell_0123     1.00 
       99 xi29.xu10.                      inv_pcell_0123     1.00 
      100 xi29.xu9.                       inv_pcell_0123     1.00 
      101 xi29.xu8.                       inv_pcell_0123     1.00 
      102 xi29.xu7.                       inv_pcell_0123     1.00 
      103 xi29.xu6.                       inv_pcell_0123     1.00 
      104 xi29.xu5.                       inv_pcell_0123     1.00 
      105 xi29.xu4.                       inv_pcell_0123     1.00 
      106 xi29.xu3.                       inv_pcell_0123     1.00 
      107 xi29.xu2.                       inv_pcell_0123     1.00 
      108 xi29.xu1.                       inv_pcell_0123     1.00 
      109 xi29.xu0.                       inv_pcell_0123     1.00 
      110 xvwl_mux.xi7.                   read_write_vwl_mux
                                                                 1.00 
      111 xvwl_mux.xi6.                   read_write_vwl_mux
                                                                 1.00 
      112 xvwl_mux.xi5.                   read_write_vwl_mux
                                                                 1.00 
      113 xvwl_mux.xi4.                   read_write_vwl_mux
                                                                 1.00 
      114 xvwl_mux.xi3.                   read_write_vwl_mux
                                                                 1.00 
      115 xvwl_mux.xi2.                   read_write_vwl_mux
                                                                 1.00 
      116 xvwl_mux.xi1.                   read_write_vwl_mux
                                                                 1.00 
      117 xvwl_mux.xi0.                   read_write_vwl_mux
                                                                 1.00 
      118 xvwl_mux.xu0.                   inv_pcell_012      1.00 
      119 xi31.xu48.                      inv_pcell_0123     1.00 
      120 xi31.xu27.                      inv_pcell_0123     1.00 
      121 xi31.xu26.                      inv_pcell_0123     1.00 
      122 xi31.xu25.                      inv_pcell_0123     1.00 
      123 xi31.xu24.                      inv_pcell_0123     1.00 
      124 xi31.xu23.                      inv_pcell_0123     1.00 
      125 xi31.xu22.                      inv_pcell_0123     1.00 
      126 xi31.xu21.                      inv_pcell_0123     1.00 
      127 xi31.xu20.                      inv_pcell_0123     1.00 
      128 xi31.xu19.                      inv_pcell_0123     1.00 
      129 xi31.xu18.                      inv_pcell_0123     1.00 
      130 xi31.xu17.                      inv_pcell_0123     1.00 
      131 xi31.xu16.                      inv_pcell_0123     1.00 
      132 xi31.xu15.                      inv_pcell_0123     1.00 
      133 xi31.xu14.                      inv_pcell_0123     1.00 
      134 xi31.xu13.                      inv_pcell_0123     1.00 
      135 xi31.xu12.                      inv_pcell_0123     1.00 
      136 xi31.xu11.                      inv_pcell_0123     1.00 
      137 xi31.xu10.                      inv_pcell_0123     1.00 
      138 xi31.xu9.                       inv_pcell_0123     1.00 
      139 xi31.xu8.                       inv_pcell_0123     1.00 
      140 xi31.xu7.                       inv_pcell_0123     1.00 
      141 xi31.xu6.                       inv_pcell_0123     1.00 
      142 xi31.xu5.                       inv_pcell_0123     1.00 
      143 xi31.xu4.                       inv_pcell_0123     1.00 
      144 xi31.xu3.                       inv_pcell_0123     1.00 
      145 xi31.xu2.                       inv_pcell_0123     1.00 
      146 xi31.xu1.                       inv_pcell_0123     1.00 
      147 xi31.xu0.                       inv_pcell_0123     1.00 
      148 xi30.xu48.                      inv_pcell_0123     1.00 
      149 xi30.xu27.                      inv_pcell_0123     1.00 
      150 xi30.xu26.                      inv_pcell_0123     1.00 
      151 xi30.xu25.                      inv_pcell_0123     1.00 
      152 xi30.xu24.                      inv_pcell_0123     1.00 
      153 xi30.xu23.                      inv_pcell_0123     1.00 
      154 xi30.xu22.                      inv_pcell_0123     1.00 
      155 xi30.xu21.                      inv_pcell_0123     1.00 
      156 xi30.xu20.                      inv_pcell_0123     1.00 
      157 xi30.xu19.                      inv_pcell_0123     1.00 
      158 xi30.xu18.                      inv_pcell_0123     1.00 
      159 xi30.xu17.                      inv_pcell_0123     1.00 
      160 xi30.xu16.                      inv_pcell_0123     1.00 
      161 xi30.xu15.                      inv_pcell_0123     1.00 
      162 xi30.xu14.                      inv_pcell_0123     1.00 
      163 xi30.xu13.                      inv_pcell_0123     1.00 
      164 xi30.xu12.                      inv_pcell_0123     1.00 
      165 xi30.xu11.                      inv_pcell_0123     1.00 
      166 xi30.xu10.                      inv_pcell_0123     1.00 
      167 xi30.xu9.                       inv_pcell_0123     1.00 
      168 xi30.xu8.                       inv_pcell_0123     1.00 
      169 xi30.xu7.                       inv_pcell_0123     1.00 
      170 xi30.xu6.                       inv_pcell_0123     1.00 
      171 xi30.xu5.                       inv_pcell_0123     1.00 
      172 xi30.xu4.                       inv_pcell_0123     1.00 
      173 xi30.xu3.                       inv_pcell_0123     1.00 
      174 xi30.xu2.                       inv_pcell_0123     1.00 
      175 xi30.xu1.                       inv_pcell_0123     1.00 
      176 xi30.xu0.                       inv_pcell_0123     1.00 
      177 xi32.xu27.                      inv_pcell_0123     1.00 
      178 xi32.xu26.                      inv_pcell_0123     1.00 
      179 xi32.xu25.                      inv_pcell_0123     1.00 
      180 xi32.xu24.                      inv_pcell_0123     1.00 
      181 xi32.xu23.                      inv_pcell_0123     1.00 
      182 xi32.xu22.                      inv_pcell_0123     1.00 
      183 xi32.xu21.                      inv_pcell_0123     1.00 
      184 xi32.xu20.                      inv_pcell_0123     1.00 
      185 xi32.xu19.                      inv_pcell_0123     1.00 
      186 xi32.xu18.                      inv_pcell_0123     1.00 
      187 xi32.xu17.                      inv_pcell_0123     1.00 
      188 xi32.xu16.                      inv_pcell_0123     1.00 
      189 xi32.xu15.                      inv_pcell_0123     1.00 
      190 xi32.xu14.                      inv_pcell_0123     1.00 
      191 xi32.xu13.                      inv_pcell_0123     1.00 
      192 xi32.xu12.                      inv_pcell_0123     1.00 
      193 xi32.xu11.                      inv_pcell_0123     1.00 
      194 xi32.xu10.                      inv_pcell_0123     1.00 
      195 xi32.xu9.                       inv_pcell_0123     1.00 
      196 xi32.xu8.                       inv_pcell_0123     1.00 
      197 xi32.xu7.                       inv_pcell_0123     1.00 
      198 xi32.xu6.                       inv_pcell_0123     1.00 
      199 xi32.xu5.                       inv_pcell_0123     1.00 
      200 xi32.xu4.                       inv_pcell_0123     1.00 
      201 xi32.xu3.                       inv_pcell_0123     1.00 
      202 xi32.xu2.                       inv_pcell_0123     1.00 
      203 xi32.xu1.                       inv_pcell_0123     1.00 
      204 xi32.xu0.                       inv_pcell_0123     1.00 
      205 xi33.xu0.                       inv_pcell_0123     1.00 
      206 xi33.xu1.                       inv_pcell_67       1.00 
      207 xi33.xu2.                       inv_pcell_8        1.00 
      208 xi33.xu3.                       inv_pcell_91011    1.00 
      209 xclk_gen.xgen.                  signal_gen         1.00 
      210 xa0_gen.xgen.                   signal_gen         1.00 
      211 xa255_gen.xgen.                 signal_gen         1.00 
      212 xarray.xwriter.xu0.             inv_pcell_01       1.00 
      213 xarray.xwriter.xu2.             inv_pcell_23       1.00 
      214 xarray.xwriter.xu1.             inv_pcell_23       1.00 
      215 xarray.xwriteb3dum.xu0.         inv_pcell_01      63.00 
      216 xarray.xwriteb3dum.xu2.         inv_pcell_23      63.00 
      217 xarray.xwriteb3dum.xu1.         inv_pcell_23      63.00 
      218 xarray.xwriteb1dum.xu0.         inv_pcell_01      64.00 
      219 xarray.xwriteb1dum.xu2.         inv_pcell_23      64.00 
      220 xarray.xwriteb1dum.xu1.         inv_pcell_23      64.00 
      221 xarray.xwriteb2dum.xu0.         inv_pcell_01      64.00 
      222 xarray.xwriteb2dum.xu2.         inv_pcell_23      64.00 
      223 xarray.xwriteb2dum.xu1.         inv_pcell_23      64.00 
      224 xarray.xwriteb0dum.xu0.         inv_pcell_01      63.00 
      225 xarray.xwriteb0dum.xu2.         inv_pcell_23      63.00 
      226 xarray.xwriteb0dum.xu1.         inv_pcell_23      63.00 
      227 xarray.xwritel.xu0.             inv_pcell_01       1.00 
      228 xarray.xwritel.xu2.             inv_pcell_23       1.00 
      229 xarray.xwritel.xu1.             inv_pcell_23       1.00 
      230 xdecoder.xpredecoder416.xi16.   nand_pcell_4       1.00 
      231 xdecoder.xpredecoder416.xi15.   nand_pcell_4       1.00 
      232 xdecoder.xpredecoder416.xi17.   nand_pcell_4       1.00 
      233 xdecoder.xpredecoder416.xi18.   nand_pcell_4       1.00 
      234 xdecoder.xpredecoder416.xu15.   inv_pcell_5        1.00 
      235 xdecoder.xpredecoder416.xu14.   inv_pcell_5        1.00 
      236 xdecoder.xpredecoder416.xu13.   inv_pcell_5        1.00 
      237 xdecoder.xpredecoder416.xu12.   inv_pcell_5        1.00 
      238 xdecoder.xpredecoder416.xu11.   inv_pcell_6        1.00 
      239 xdecoder.xpredecoder416.xu10.   inv_pcell_6        1.00 
      240 xdecoder.xpredecoder416.xu9.    inv_pcell_6        1.00 
      241 xdecoder.xpredecoder416.xu8.    inv_pcell_6        1.00 
      242 xdecoder.xpredecoder416.xu0.    inv_pcell_7        1.00 
      243 xdecoder.xpredecoder416.xu1.    inv_pcell_7        1.00 
      244 xdecoder.xpredecoder416.xu2.    inv_pcell_7        1.00 
      245 xdecoder.xpredecoder416.xu3.    inv_pcell_7        1.00 
      246 xdecoder.xdecoder_stage.xu3.    nand_pcell_8       1.00 
      247 xdecoder.xdecoder_stage.xu2.    nand_pcell_8       1.00 
      248 xdecoder.xdecoder_stage.xu1.    nand_pcell_8       1.00 
      249 xdecoder.xdecoder_stage.xu0.    nand_pcell_8       1.00 
      250 xdecoder.xdecoder_stage.xu8.    inv_pcell_9        1.00 
      251 xdecoder.xdecoder_stage.xu7.    inv_pcell_9        1.00 
      252 xdecoder.xdecoder_stage.xu6.    inv_pcell_9        1.00 
      253 xdecoder.xdecoder_stage.xu5.    inv_pcell_9        1.00 
      254 xdecoder.xpredecoder24.xu3.     inv_pcell_10       1.00 
      255 xdecoder.xpredecoder24.xu2.     inv_pcell_10       1.00 
      256 xdecoder.xpredecoder24.xu1.     inv_pcell_10       1.00 
      257 xdecoder.xpredecoder24.xu0.     inv_pcell_10       1.00 
      258 xdecoder.xpredecoder24.xi36.    nand3              1.00 
      259 xdecoder.xpredecoder24.xi37.    nand3              1.00 
      260 xdecoder.xpredecoder24.xi38.    nand3              1.00 
      261 xdecoder.xpredecoder24.xi39.    nand3              1.00 
      262 xclk_gen.xgen.x_0.              inv_chain_stimulus
                                                                 1.00 
      263 xa0_gen.xgen.x_0.               inv_chain_stimulus
                                                                 1.00 
      264 xa255_gen.xgen.x_0.             inv_chain_stimulus
                                                                 1.00 
      265 xclk_gen.xgen.x_0.x_0.          inv_stimulus       1.00 
      266 xclk_gen.xgen.x_0.x_1.          inv_stimulus       4.00 
      267 xclk_gen.xgen.x_0.x_2.          inv_stimulus      16.00 
      268 xclk_gen.xgen.x_0.x_3.          inv_stimulus      64.00 
      269 xa0_gen.xgen.x_0.x_0.           inv_stimulus       1.00 
      270 xa0_gen.xgen.x_0.x_1.           inv_stimulus       4.00 
      271 xa0_gen.xgen.x_0.x_2.           inv_stimulus      16.00 
      272 xa0_gen.xgen.x_0.x_3.           inv_stimulus      64.00 
      273 xa255_gen.xgen.x_0.x_0.         inv_stimulus       1.00 
      274 xa255_gen.xgen.x_0.x_1.         inv_stimulus       4.00 
      275 xa255_gen.xgen.x_0.x_2.         inv_stimulus      16.00 
      276 xa255_gen.xgen.x_0.x_3.         inv_stimulus      64.00 


 circuit parameter definitions
  parameter          =  value 

     0:supply                                                  = 910.0000m      
     0:tcyc                                                    =   1.0000n      
     0:trf                                                     =  50.0000p      
     0:pd24s1pw                                                =   7.0000       
     0:pd24s1nw                                                =   5.0000       
     0:pd24s2pw                                                =  13.0000       
     0:pd24s2nw                                                =   5.0000       
     0:pd416s3pw                                               =   9.0000       
     0:pd416s3nw                                               =   5.0000       
     0:pd416s4pw                                               =  12.0000       
     0:pd416s4nw                                               =   5.0000       
     0:pd416s5pw                                               =  12.0000       
     0:pd416s5nw                                               =   5.0000       
     0:pd416s6pw                                               =  30.0000       
     0:pd416s6nw                                               =  10.0000       
     0:dss7pw                                                  =   9.0000       
     0:dss7nw                                                  =   5.0000       
     0:dss8pw                                                  =  18.0000       
     0:dss8nw                                                  =   7.0000       
     0:bds9pw                                                  =  27.0000       
     0:bds9nw                                                  =  13.0000       
     0:bds10pw                                                 =  18.0000       
     0:bds10nw                                                 =   7.0000       
     0:blpcwidth                                               =  40.0000       
     0:wrenpwvdd                                               =  48.0000       
     0:wrenpwwl                                                =  48.0000       
     0:wl0_rise                                                =   0.           
     0:wl0_width                                               =   0.           
     0:wl0_fall                                                =   0.           
     0:wl1_rise                                                =   0.           
     0:wl1_fall                                                =   0.           
     0:bl0_split                                               =   0.           
     0:bl1_split                                               =   0.           
     0:bl_pc_overlap                                           =   0.           
     0:bl63_pc_overlap                                         =   0.           
     0:clk-out0                                                =   0.           
     0:precharge                                               =   0.           
     0:sae-out0                                                =   0.           
     0:out0-width                                              =   0.           
     0:write_core_power                                        =   0.           
     0:vcell_power                                             =   0.           
     0:mem_core_power                                          =   0.           
   258:nl                                                      =   2.0000       
   258:nw                                                      =   5.0000       
   258:nm                                                      =   1.0000       
   258:pl                                                      =   2.0000       
   258:pw                                                      =   7.0000       
   258:pm                                                      =   1.0000       
   265:wp                                                      =  24.0000       
   265:lp                                                      =   2.0000       
   265:wn                                                      =   8.0000       
   265:ln                                                      =   2.0000       
   266:wp                                                      =  24.0000       
   266:lp                                                      =   2.0000       
   266:wn                                                      =   8.0000       
   266:ln                                                      =   2.0000       
   267:wp                                                      =  24.0000       
   267:lp                                                      =   2.0000       
   267:wn                                                      =   8.0000       
   267:ln                                                      =   2.0000       
   268:wp                                                      =  24.0000       
   268:lp                                                      =   2.0000       
   268:wn                                                      =   8.0000       
   268:ln                                                      =   2.0000       
   269:wp                                                      =  24.0000       
   269:lp                                                      =   2.0000       
   269:wn                                                      =   8.0000       
   269:ln                                                      =   2.0000       
   270:wp                                                      =  24.0000       
   270:lp                                                      =   2.0000       
   270:wn                                                      =   8.0000       
   270:ln                                                      =   2.0000       
   271:wp                                                      =  24.0000       
   271:lp                                                      =   2.0000       
   271:wn                                                      =   8.0000       
   271:ln                                                      =   2.0000       
   272:wp                                                      =  24.0000       
   272:lp                                                      =   2.0000       
   272:wn                                                      =   8.0000       
   272:ln                                                      =   2.0000       
   273:wp                                                      =  24.0000       
   273:lp                                                      =   2.0000       
   273:wn                                                      =   8.0000       
   273:ln                                                      =   2.0000       
   274:wp                                                      =  24.0000       
   274:lp                                                      =   2.0000       
   274:wn                                                      =   8.0000       
   274:ln                                                      =   2.0000       
   275:wp                                                      =  24.0000       
   275:lp                                                      =   2.0000       
   275:wn                                                      =   8.0000       
   275:ln                                                      =   2.0000       
   276:wp                                                      =  24.0000       
   276:lp                                                      =   2.0000       
   276:wn                                                      =   8.0000       
   276:ln                                                      =   2.0000       




 constants  - tnom         kt           vt           gapsi        ni
            298.15000    4.1163e-21    25.69184m     1.11562    1.2565e+16 
  **info** (part2_decoder_Blocked_Slowed_Switched_WR_Voltages.hsp:94) DC voltage reset to initial transient source value              in source        0:vblock0             new dc=  0.0000D+00
  **warning** (/usr/class/ee313/ee313_spice_header.h:18) Both nodes of element vgnd are connected together; Line ignored.
 ** warning** associated with encrypted blocks were suppressed

1****** HSPICE -- F-2011.09-SP2 32-BIT (Feb 27 2012) linux ******               
 ******  
 part 2

  ******  circuit element summary tnom=  25.000 temp=  25.000 *****


 **** capacitors
  
  
                                                                    
 element name        5:c1           5:c0        6:c1        6:c0    
 node1               5:predec_25    5:predec    0:sapc_b    0:b3sae 
 node2               0:0            0:0         0:0         0:0     
 model                                                              
 cap eff            22.5300f       22.5300f   560.0000a   560.0000a 
 tc1                 0.             0.          0.          0.      
 tc2                 0.             0.          0.          0.      
 scale               1.0000         1.0000      1.0000      1.0000  
 ic                  0.             0.          0.          0.      
 m                   1.0000         1.0000      1.0000      1.0000  
 w                   0.             0.          0.          0.      
 l                   0.             0.          0.          0.      
 temp               25.0000        25.0000     25.0000     25.0000  
  
  
                                                                
 element name        7:c1        7:c0      33:c2      33:c1     
 node1               0:sapc_b    0:b0sae    0:bl63     0:bl_b63 
 node2               0:0         0:0        0:0        0:0      
 model                                                          
 cap eff           560.0000a   560.0000a   88.0000a   88.0000a  
 tc1                 0.          0.         0.         0.       
 tc2                 0.          0.         0.         0.       
 scale               1.0000      1.0000     1.0000     1.0000   
 ic                  0.          0.         0.         0.       
 m                   1.0000      1.0000     1.0000     1.0000   
 w                   0.          0.         0.         0.       
 l                   0.          0.         0.         0.       
 temp               25.0000     25.0000    25.0000    25.0000   
  
  
                                                                  
 element name       33:c0         34:c2      34:c1       35:c2    
 node1               0:b3wl0_sw    0:bl63     0:bl_b63    0:bl63  
 node2               0:0           0:0        0:0         0:0     
 model                                                            
 cap eff           140.0000a      22.3520f   22.3520f    88.0000a 
 tc1                 0.            0.         0.          0.      
 tc2                 0.            0.         0.          0.      
 scale               1.0000        1.0000     1.0000      1.0000  
 ic                  0.            0.         0.          0.      
 m                   1.0000      254.0000   254.0000      1.0000  
 w                   0.            0.         0.          0.      
 l                   0.            0.         0.          0.      
 temp               25.0000       25.0000    25.0000     25.0000  
  
  
                                                                      
 element name       35:c1       35:c0         36:c2        36:c1      
 node1               0:bl_b63    0:b3wl255_    4:net0207    4:net0206 
 node2               0:0         0:0           0:0          0:0       
 model                                                                
 cap eff            88.0000a   140.0000a       5.5440f      5.5440f   
 tc1                 0.          0.            0.           0.        
 tc2                 0.          0.            0.           0.        
 scale               1.0000      1.0000        1.0000       1.0000    
 ic                  0.          0.            0.           0.        
 m                   1.0000      1.0000       63.0000      63.0000    
 w                   0.          0.            0.           0.        
 l                   0.          0.            0.           0.        
 temp               25.0000     25.0000       25.0000      25.0000    
  
  
                                                                       
 element name       36:c0         37:c2        37:c1        38:c2      
 node1               0:b3wl0_sw    4:net0207    4:net0206    4:net0207 
 node2               0:0           0:0          0:0          0:0       
 model                                                                 
 cap eff             8.8200f       1.4080p      1.4080p      5.5440f   
 tc1                 0.            0.           0.           0.        
 tc2                 0.            0.           0.           0.        
 scale               1.0000        1.0000       1.0000       1.0000    
 ic                  0.            0.           0.           0.        
 m                  63.0000       16.0000k     16.0000k     63.0000    
 w                   0.            0.           0.           0.        
 l                   0.            0.           0.           0.        
 temp               25.0000       25.0000      25.0000      25.0000    
  
  
                                                                       
 element name       38:c1        38:c0         39:c2        39:c1      
 node1               4:net0206    0:b3wl255_    4:net0163    4:net0162 
 node2               0:0          0:0           0:0          0:0       
 model                                                                 
 cap eff             5.5440f      8.8200f       5.6320f      5.6320f   
 tc1                 0.           0.            0.           0.        
 tc2                 0.           0.            0.           0.        
 scale               1.0000       1.0000        1.0000       1.0000    
 ic                  0.           0.            0.           0.        
 m                  63.0000      63.0000       64.0000      64.0000    
 w                   0.           0.            0.           0.        
 l                   0.           0.            0.           0.        
 temp               25.0000      25.0000       25.0000      25.0000    
  
  
                                                                        
 element name       39:c0         40:c2        40:c1        40:c0       
 node1               0:b2wl255_    4:net0163    4:net0162    0:b2wl0_sw 
 node2               0:0           0:0          0:0          0:0        
 model                                                                  
 cap eff             8.9600f       5.6320f      5.6320f      8.9600f    
 tc1                 0.            0.           0.           0.         
 tc2                 0.            0.           0.           0.         
 scale               1.0000        1.0000       1.0000       1.0000     
 ic                  0.            0.           0.           0.         
 m                  64.0000       64.0000      64.0000      64.0000     
 w                   0.            0.           0.           0.         
 l                   0.            0.           0.           0.         
 temp               25.0000       25.0000      25.0000      25.0000     
  
  
                                                                      
 element name       41:c2        41:c1        42:c2        42:c1      
 node1               4:net0163    4:net0162    4:net0180    4:net0136 
 node2               0:0          0:0          0:0          0:0       
 model                                                                
 cap eff             1.4309p      1.4309p      5.6320f      5.6320f   
 tc1                 0.           0.           0.           0.        
 tc2                 0.           0.           0.           0.        
 scale               1.0000       1.0000       1.0000       1.0000    
 ic                  0.           0.           0.           0.        
 m                  16.2600k     16.2600k     64.0000      64.0000    
 w                   0.           0.           0.           0.        
 l                   0.           0.           0.           0.        
 temp               25.0000      25.0000      25.0000      25.0000    
  
  
                                                                        
 element name       42:c0         43:c2        43:c1        43:c0       
 node1               0:b1wl0_sw    4:net0234    4:net0233    0:b0wl255_ 
 node2               0:0           0:0          0:0          0:0        
 model                                                                  
 cap eff             8.9600f       5.5440f      5.5440f      8.8200f    
 tc1                 0.            0.           0.           0.         
 tc2                 0.            0.           0.           0.         
 scale               1.0000        1.0000       1.0000       1.0000     
 ic                  0.            0.           0.           0.         
 m                  64.0000       63.0000      63.0000      63.0000     
 w                   0.            0.           0.           0.         
 l                   0.            0.           0.           0.         
 temp               25.0000       25.0000      25.0000      25.0000     
  
  
                                                                 
 element name       44:c2      44:c1      44:c0         45:c2    
 node1               0:bl0      0:bl_b0    0:b0wl255_    0:bl0   
 node2               0:0        0:0        0:0           0:0     
 model                                                           
 cap eff            88.0000a   88.0000a  140.0000a      22.3520f 
 tc1                 0.         0.         0.            0.      
 tc2                 0.         0.         0.            0.      
 scale               1.0000     1.0000     1.0000        1.0000  
 ic                  0.         0.         0.            0.      
 m                   1.0000     1.0000     1.0000      254.0000  
 w                   0.         0.         0.            0.      
 l                   0.         0.         0.            0.      
 temp               25.0000    25.0000    25.0000       25.0000  
  
  
                                                                    
 element name       45:c1      46:c2        46:c1        47:c2      
 node1               0:bl_b0    4:net0234    4:net0233    4:net0180 
 node2               0:0        0:0          0:0          0:0       
 model                                                              
 cap eff            22.3520f    1.4080p      1.4080p      1.4309p   
 tc1                 0.         0.           0.           0.        
 tc2                 0.         0.           0.           0.        
 scale               1.0000     1.0000       1.0000       1.0000    
 ic                  0.         0.           0.           0.        
 m                 254.0000    16.0000k     16.0000k     16.2600k   
 w                   0.         0.           0.           0.        
 l                   0.         0.           0.           0.        
 temp               25.0000    25.0000      25.0000      25.0000    
  
  
                                                                       
 element name       47:c1        48:c2        48:c1        48:c0       
 node1               4:net0136    4:net0180    4:net0136    0:b1wl255_ 
 node2               0:0          0:0          0:0          0:0        
 model                                                                 
 cap eff             1.4309p      5.6320f      5.6320f      8.9600f    
 tc1                 0.           0.           0.           0.         
 tc2                 0.           0.           0.           0.         
 scale               1.0000       1.0000       1.0000       1.0000     
 ic                  0.           0.           0.           0.         
 m                  16.2600k     64.0000      64.0000      64.0000     
 w                   0.           0.           0.           0.         
 l                   0.           0.           0.           0.         
 temp               25.0000      25.0000      25.0000      25.0000     
  
  
                                                                     
 element name       49:c2        49:c1        49:c0         50:c2    
 node1               4:net0234    4:net0233    0:b0wl0_sw    0:bl0   
 node2               0:0          0:0          0:0           0:0     
 model                                                               
 cap eff             5.5440f      5.5440f      8.8200f      88.0000a 
 tc1                 0.           0.           0.            0.      
 tc2                 0.           0.           0.            0.      
 scale               1.0000       1.0000       1.0000        1.0000  
 ic                  0.           0.           0.            0.      
 m                  63.0000      63.0000      63.0000        1.0000  
 w                   0.           0.           0.            0.      
 l                   0.           0.           0.            0.      
 temp               25.0000      25.0000      25.0000       25.0000  
  
  
                                           
 element name       50:c1      50:c0       
 node1               0:bl_b0    0:b0wl0_sw 
 node2               0:0        0:0        
 model                                     
 cap eff            88.0000a  140.0000a    
 tc1                 0.         0.         
 tc2                 0.         0.         
 scale               1.0000     1.0000     
 ic                  0.         0.         
 m                   1.0000     1.0000     
 w                   0.         0.         
 l                   0.         0.         
 temp               25.0000    25.0000     


 **** voltage-controlled voltage sources
      name        +             -          dimension  function  scale
      209:e_0           209:net_3           0:0              1      poly       1.    
      210:e_0           210:net_3           0:0              1      poly       1.    
      211:e_0           211:net_3           0:0              1      poly       1.    


 **** current-controlled current sources
      name        +             -          dimension  function  multiplier
      209:f_0           209:net_4           0:0              1      poly       1.    
      209:f_1           209:net_4           0:0              1      poly       1.    
      210:f_0           210:net_4           0:0              1      poly       1.    
      210:f_1           210:net_4           0:0              1      poly       1.    
      211:f_0           211:net_4           0:0              1      poly       1.    
      211:f_1           211:net_4           0:0              1      poly       1.    


 **** independent sources

     name         node1        node2      dc volt    ac mag    ac phase    type
  v_supply  vdd               0                  910.0000m    0.         0.      dc   
  v_supply1  vdd!              0                  910.0000m    0.         0.      dc   
  vblock0  block0            0                    0.         0.         0.      pulse
             initial value     0.     
             pulsed value.   910.0000m
             delay time...   500.0000p
             risetime.....    50.0000p
             falltime.....    50.0000p
             width........     2.0000n
             period.......     4.0000n

  vblock3  block3            0                  910.0000m    0.         0.      pulse
             initial value   910.0000m
             pulsed value.     0.     
             delay time...   500.0000p
             risetime.....    50.0000p
             falltime.....    50.0000p
             width........     2.0000n
             period.......     4.0000n

  vvcell  vcell             0                  810.0000m    0.         0.      dc   
  vvdd_wr  vdd_wr            0                  710.0000m    0.         0.      dc   
  vwrdata0  wrdata0           0                    0.         0.         0.      dc   
  vwrdata255  wrdata255         0                  910.0000m    0.         0.      dc   
  vwren  wren              0                    0.         0.         0.      pulse
             initial value     0.     
             pulsed value.   910.0000m
             delay time...     8.5000n
             risetime.....    50.0000p
             falltime.....    50.0000p
             width........     4.0000n
             period.......    12.0000n

 xclk_gen.vsrc xclk_gen.src               0                    0.         0.         0.      pulse
             initial value     0.     
             pulsed value.   910.0000m
             delay time...   500.0000p
             risetime.....    50.0000p
             falltime.....    50.0000p
             width........   450.0000p
             period.......     1.0000n

 xa0_gen.vsrc xa0_gen.src               0                    0.         0.         0.      pulse
             initial value     0.     
             pulsed value.   910.0000m
             delay time...   375.0000p
             risetime.....    50.0000p
             falltime.....    50.0000p
             width........   950.0000p
             period.......     2.0000n

 xa255_gen.vsrc xa255_gen.src               0                    0.         0.         0.      pulse
             initial value     0.     
             pulsed value.   910.0000m
             delay time...     1.3750n
             risetime.....    50.0000p
             falltime.....    50.0000p
             width........   950.0000p
             period.......     2.0000n

 xclk_gen.xgen.v_monitor xclk_gen.xgen.net_4             0                  910.0000m    0.         0.      dc   
 xclk_gen.xgen.v_sense xclk_gen.xgen.net_3             ck                   0.         0.         0.      dc   
 xa0_gen.xgen.v_monitor xa0_gen.xgen.net_4             0                  910.0000m    0.         0.      dc   
 xa0_gen.xgen.v_sense xa0_gen.xgen.net_3             a0                   0.         0.         0.      dc   
 xa255_gen.xgen.v_monitor xa255_gen.xgen.net_4             0                  910.0000m    0.         0.      dc   
 xa255_gen.xgen.v_sense xa255_gen.xgen.net_3             a255                 0.         0.         0.      dc   
 xclk_gen.xgen.x_0.x_0.vstimulus_supply xclk_gen.xgen.x_0.x_0.vdd_stimulus      0                  910.0000m    0.         0.      dc   
 xclk_gen.xgen.x_0.x_1.vstimulus_supply xclk_gen.xgen.x_0.x_1.vdd_stimulus      0                  910.0000m    0.         0.      dc   
 xclk_gen.xgen.x_0.x_2.vstimulus_supply xclk_gen.xgen.x_0.x_2.vdd_stimulus      0                  910.0000m    0.         0.      dc   
 xclk_gen.xgen.x_0.x_3.vstimulus_supply xclk_gen.xgen.x_0.x_3.vdd_stimulus      0                  910.0000m    0.         0.      dc   
 xa0_gen.xgen.x_0.x_0.vstimulus_supply xa0_gen.xgen.x_0.x_0.vdd_stimulus      0                  910.0000m    0.         0.      dc   
 xa0_gen.xgen.x_0.x_1.vstimulus_supply xa0_gen.xgen.x_0.x_1.vdd_stimulus      0                  910.0000m    0.         0.      dc   
 xa0_gen.xgen.x_0.x_2.vstimulus_supply xa0_gen.xgen.x_0.x_2.vdd_stimulus      0                  910.0000m    0.         0.      dc   
 xa0_gen.xgen.x_0.x_3.vstimulus_supply xa0_gen.xgen.x_0.x_3.vdd_stimulus      0                  910.0000m    0.         0.      dc   
 xa255_gen.xgen.x_0.x_0.vstimulus_supply xa255_gen.xgen.x_0.x_0.vdd_stimulus      0                  910.0000m    0.         0.      dc   
 xa255_gen.xgen.x_0.x_1.vstimulus_supply xa255_gen.xgen.x_0.x_1.vdd_stimulus      0                  910.0000m    0.         0.      dc   
 xa255_gen.xgen.x_0.x_2.vstimulus_supply xa255_gen.xgen.x_0.x_2.vdd_stimulus      0                  910.0000m    0.         0.      dc   
 xa255_gen.xgen.x_0.x_3.vstimulus_supply xa255_gen.xgen.x_0.x_3.vdd_stimulus      0                  910.0000m    0.         0.      dc   


 **** mosfets


 **** BSIM4 Model (Level 54)
  
  
                                                                
 element name        6:m4       6:m3       6:meq       6:mpc2   
 drain               6:sbl_b    0:vdd!     6:sbl       0:vdd!   
 gate                6:sbl      6:sbl_b    0:sapc_b    0:sapc_b 
 source              0:vdd!     6:sbl      6:sbl_b     6:sbl_b  
 bulk                0:vdd!     0:vdd!     0:vdd!      0:vdd!   
 model               0:pmos     0:pmos     0:pmos      0:pmos   
 w eff              78.0000n   78.0000n  166.0000n   166.0000n  
 l eff              29.0000n   29.0000n   29.0000n    29.0000n  
 rd eff              0.         0.         0.          0.       
 rs eff              0.         0.         0.          0.       
 cdsat               7.8700a    7.8700a   15.1073a    15.1073a  
 cssat               7.8700a    7.8700a   15.1073a    15.1073a  
 capbd             133.6681a  133.6681a  223.4243a   223.4243a  
 capbs             116.1033a  116.1033a  188.2947a   188.2947a  
 temp               25.0000    25.0000    25.0000     25.0000   
 aic                                                            
 nf                  1.0000     1.0000     1.0000      1.0000   
 min                 0.         0.         0.          0.       
 rbdb               15.0000    15.0000    15.0000     15.0000   
 rbsb               15.0000    15.0000    15.0000     15.0000   
 rbpb                5.0000     5.0000     5.0000      5.0000   
 rbps               15.0000    15.0000    15.0000     15.0000   
 rbpd               15.0000    15.0000    15.0000     15.0000   
 trnqsmod            0.         0.         0.          0.       
 acnqsmod            0.         0.         0.          0.       
 rbodymod            1.0000     1.0000     1.0000      1.0000   
 rgatemod            1.0000     1.0000     1.0000      1.0000   
 geomod              0.         0.         0.          0.       
 rgeomod             0.         0.         0.          0.       
 delvto              0.         0.         0.          0.       
 mulu0               1.0000     1.0000     1.0000      1.0000   
 delk1               0.         0.         0.          0.       
 delnfct             0.         0.         0.          0.       
 deltox              0.         0.         0.          0.       
 sa                  0.         0.         0.          0.       
 sb                  0.         0.         0.          0.       
 sd                  0.         0.         0.          0.       
 saeff               0.         0.         0.          0.       
 sbeff               0.         0.         0.          0.       
  
  
                                                                 
 element name        6:mpc       6:miso_b    6:miso     6:mmx4_b 
 drain               6:sbl       6:sbl_b     6:sbl      6:cmbl_b 
 gate                0:sapc_b    0:b3sae     0:b3sae    0:vdd!   
 source              0:vdd!      6:cmbl_b    6:cmbl     0:vdd!   
 bulk                0:vdd!      0:vdd!      0:vdd!     0:vdd!   
 model               0:pmos      0:pmos      0:pmos     0:pmos   
 w eff             166.0000n   254.0000n   254.0000n  518.0000n  
 l eff              29.0000n    29.0000n    29.0000n   29.0000n  
 rd eff              0.          0.          0.         0.       
 rs eff              0.          0.          0.         0.       
 cdsat              15.1073a    22.3447a    22.3447a   44.0567a  
 cssat              15.1073a    22.3447a    22.3447a   44.0567a  
 capbd             223.4243a   313.1804a   313.1804a  582.4488a  
 capbs             188.2947a   260.4860a   260.4860a  477.0600a  
 temp               25.0000     25.0000     25.0000    25.0000   
 aic                                                             
 nf                  1.0000      1.0000      1.0000     1.0000   
 min                 0.          0.          0.         0.       
 rbdb               15.0000     15.0000     15.0000    15.0000   
 rbsb               15.0000     15.0000     15.0000    15.0000   
 rbpb                5.0000      5.0000      5.0000     5.0000   
 rbps               15.0000     15.0000     15.0000    15.0000   
 rbpd               15.0000     15.0000     15.0000    15.0000   
 trnqsmod            0.          0.          0.         0.       
 acnqsmod            0.          0.          0.         0.       
 rbodymod            1.0000      1.0000      1.0000     1.0000   
 rgatemod            1.0000      1.0000      1.0000     1.0000   
 geomod              0.          0.          0.         0.       
 rgeomod             0.          0.          0.         0.       
 delvto              0.          0.          0.         0.       
 mulu0               1.0000      1.0000      1.0000     1.0000   
 delk1               0.          0.          0.         0.       
 delnfct             0.          0.          0.         0.       
 deltox              0.          0.          0.         0.       
 sa                  0.          0.          0.         0.       
 sb                  0.          0.          0.         0.       
 sd                  0.          0.          0.         0.       
 saeff               0.          0.          0.         0.       
 sbeff               0.          0.          0.         0.       
  
  
                                                                
 element name        6:mmx4     6:mmx3_b    6:mmx3     6:mmx2_b 
 drain               6:cmbl     6:cmbl_b    6:cmbl     6:cmbl_b 
 gate                0:vdd!     0:vdd!      0:vdd!     0:vdd!   
 source              0:vdd!     0:vdd!      0:vdd!     0:vdd!   
 bulk                0:vdd!     0:vdd!      0:vdd!     0:vdd!   
 model               0:pmos     0:pmos      0:pmos     0:pmos   
 w eff             518.0000n  518.0000n   518.0000n  518.0000n  
 l eff              29.0000n   29.0000n    29.0000n   29.0000n  
 rd eff              0.         0.          0.         0.       
 rs eff              0.         0.          0.         0.       
 cdsat              44.0567a   44.0567a    44.0567a   44.0567a  
 cssat              44.0567a   44.0567a    44.0567a   44.0567a  
 capbd             582.4488a  582.4488a   582.4488a  582.4488a  
 capbs             477.0600a  477.0600a   477.0600a  477.0600a  
 temp               25.0000    25.0000     25.0000    25.0000   
 aic                                                            
 nf                  1.0000     1.0000      1.0000     1.0000   
 min                 0.         0.          0.         0.       
 rbdb               15.0000    15.0000     15.0000    15.0000   
 rbsb               15.0000    15.0000     15.0000    15.0000   
 rbpb                5.0000     5.0000      5.0000     5.0000   
 rbps               15.0000    15.0000     15.0000    15.0000   
 rbpd               15.0000    15.0000     15.0000    15.0000   
 trnqsmod            0.         0.          0.         0.       
 acnqsmod            0.         0.          0.         0.       
 rbodymod            1.0000     1.0000      1.0000     1.0000   
 rgatemod            1.0000     1.0000      1.0000     1.0000   
 geomod              0.         0.          0.         0.       
 rgeomod             0.         0.          0.         0.       
 delvto              0.         0.          0.         0.       
 mulu0               1.0000     1.0000      1.0000     1.0000   
 delk1               0.         0.          0.         0.       
 delnfct             0.         0.          0.         0.       
 deltox              0.         0.          0.         0.       
 sa                  0.         0.          0.         0.       
 sb                  0.         0.          0.         0.       
 sd                  0.         0.          0.         0.       
 saeff               0.         0.          0.         0.       
 sbeff               0.         0.          0.         0.       
  
  
                                                                    
 element name        6:mmx2     6:mmx_b       6:mmx         6:mtail 
 drain               6:cmbl     6:cmbl_b      6:cmbl        6:tail  
 gate                0:vdd!     0:b3sel_b6    0:b3sel_b6    0:b3sae 
 source              0:vdd!     0:bl_b63      0:bl63        0:0     
 bulk                0:vdd!     0:vdd!        0:vdd!        0:0     
 model               0:pmos     0:pmos        0:pmos        0:nmos  
 w eff             518.0000n  518.0000n     518.0000n     166.0000n 
 l eff              29.0000n   29.0000n      29.0000n      29.0000n 
 rd eff              0.         0.            0.            0.      
 rs eff              0.         0.            0.            0.      
 cdsat              44.0567a   44.0567a      44.0567a      15.1073a 
 cssat              44.0567a   44.0567a      44.0567a      15.1073a 
 capbd             582.4488a  582.4488a     582.4488a     223.4243a 
 capbs             477.0600a  477.0600a     477.0600a     188.2947a 
 temp               25.0000    25.0000       25.0000       25.0000  
 aic                                                                
 nf                  1.0000     1.0000        1.0000        1.0000  
 min                 0.         0.            0.            0.      
 rbdb               15.0000    15.0000       15.0000       15.0000  
 rbsb               15.0000    15.0000       15.0000       15.0000  
 rbpb                5.0000     5.0000        5.0000        5.0000  
 rbps               15.0000    15.0000       15.0000       15.0000  
 rbpd               15.0000    15.0000       15.0000       15.0000  
 trnqsmod            0.         0.            0.            0.      
 acnqsmod            0.         0.            0.            0.      
 rbodymod            1.0000     1.0000        1.0000        1.0000  
 rgatemod            1.0000     1.0000        1.0000        1.0000  
 geomod              0.         0.            0.            0.      
 rgeomod             0.         0.            0.            0.      
 delvto              0.         0.            0.            0.      
 mulu0               1.0000     1.0000        1.0000        1.0000  
 delk1               0.         0.            0.            0.      
 delnfct             0.         0.            0.            0.      
 deltox              0.         0.            0.            0.      
 sa                  0.         0.            0.            0.      
 sb                  0.         0.            0.            0.      
 sd                  0.         0.            0.            0.      
 saeff               0.         0.            0.            0.      
 sbeff               0.         0.            0.            0.      
  
  
                                                              
 element name        6:m1       6:m2       7:m4       7:m3    
 drain               6:tail     6:sbl_b    7:sbl_b    0:vdd!  
 gate                6:sbl_b    6:sbl      7:sbl      7:sbl_b 
 source              6:sbl      6:tail     0:vdd!     7:sbl   
 bulk                0:0        0:0        0:vdd!     0:vdd!  
 model               0:nmos     0:nmos     0:pmos     0:pmos  
 w eff             122.0000n  122.0000n   78.0000n   78.0000n 
 l eff              29.0000n   29.0000n   29.0000n   29.0000n 
 rd eff              0.         0.         0.         0.      
 rs eff              0.         0.         0.         0.      
 cdsat              11.4887a   11.4887a    7.8700a    7.8700a 
 cssat              11.4887a   11.4887a    7.8700a    7.8700a 
 capbd             178.5462a  178.5462a  133.6681a  133.6681a 
 capbs             152.1990a  152.1990a  116.1033a  116.1033a 
 temp               25.0000    25.0000    25.0000    25.0000  
 aic                                                          
 nf                  1.0000     1.0000     1.0000     1.0000  
 min                 0.         0.         0.         0.      
 rbdb               15.0000    15.0000    15.0000    15.0000  
 rbsb               15.0000    15.0000    15.0000    15.0000  
 rbpb                5.0000     5.0000     5.0000     5.0000  
 rbps               15.0000    15.0000    15.0000    15.0000  
 rbpd               15.0000    15.0000    15.0000    15.0000  
 trnqsmod            0.         0.         0.         0.      
 acnqsmod            0.         0.         0.         0.      
 rbodymod            1.0000     1.0000     1.0000     1.0000  
 rgatemod            1.0000     1.0000     1.0000     1.0000  
 geomod              0.         0.         0.         0.      
 rgeomod             0.         0.         0.         0.      
 delvto              0.         0.         0.         0.      
 mulu0               1.0000     1.0000     1.0000     1.0000  
 delk1               0.         0.         0.         0.      
 delnfct             0.         0.         0.         0.      
 deltox              0.         0.         0.         0.      
 sa                  0.         0.         0.         0.      
 sb                  0.         0.         0.         0.      
 sd                  0.         0.         0.         0.      
 saeff               0.         0.         0.         0.      
 sbeff               0.         0.         0.         0.      
  
  
                                                                  
 element name        7:meq       7:mpc2      7:mpc       7:miso_b 
 drain               7:sbl       0:vdd!      7:sbl       7:sbl_b  
 gate                0:sapc_b    0:sapc_b    0:sapc_b    0:b0sae  
 source              7:sbl_b     7:sbl_b     0:vdd!      7:cmbl_b 
 bulk                0:vdd!      0:vdd!      0:vdd!      0:vdd!   
 model               0:pmos      0:pmos      0:pmos      0:pmos   
 w eff             166.0000n   166.0000n   166.0000n   254.0000n  
 l eff              29.0000n    29.0000n    29.0000n    29.0000n  
 rd eff              0.          0.          0.          0.       
 rs eff              0.          0.          0.          0.       
 cdsat              15.1073a    15.1073a    15.1073a    22.3447a  
 cssat              15.1073a    15.1073a    15.1073a    22.3447a  
 capbd             223.4243a   223.4243a   223.4243a   313.1804a  
 capbs             188.2947a   188.2947a   188.2947a   260.4860a  
 temp               25.0000     25.0000     25.0000     25.0000   
 aic                                                              
 nf                  1.0000      1.0000      1.0000      1.0000   
 min                 0.          0.          0.          0.       
 rbdb               15.0000     15.0000     15.0000     15.0000   
 rbsb               15.0000     15.0000     15.0000     15.0000   
 rbpb                5.0000      5.0000      5.0000      5.0000   
 rbps               15.0000     15.0000     15.0000     15.0000   
 rbpd               15.0000     15.0000     15.0000     15.0000   
 trnqsmod            0.          0.          0.          0.       
 acnqsmod            0.          0.          0.          0.       
 rbodymod            1.0000      1.0000      1.0000      1.0000   
 rgatemod            1.0000      1.0000      1.0000      1.0000   
 geomod              0.          0.          0.          0.       
 rgeomod             0.          0.          0.          0.       
 delvto              0.          0.          0.          0.       
 mulu0               1.0000      1.0000      1.0000      1.0000   
 delk1               0.          0.          0.          0.       
 delnfct             0.          0.          0.          0.       
 deltox              0.          0.          0.          0.       
 sa                  0.          0.          0.          0.       
 sb                  0.          0.          0.          0.       
 sd                  0.          0.          0.          0.       
 saeff               0.          0.          0.          0.       
 sbeff               0.          0.          0.          0.       
  
  
                                                                
 element name        7:miso     7:mmx4_b    7:mmx4     7:mmx3_b 
 drain               7:sbl      7:cmbl_b    7:cmbl     7:cmbl_b 
 gate                0:b0sae    0:vdd!      0:vdd!     0:vdd!   
 source              7:cmbl     0:vdd!      0:vdd!     0:vdd!   
 bulk                0:vdd!     0:vdd!      0:vdd!     0:vdd!   
 model               0:pmos     0:pmos      0:pmos     0:pmos   
 w eff             254.0000n  518.0000n   518.0000n  518.0000n  
 l eff              29.0000n   29.0000n    29.0000n   29.0000n  
 rd eff              0.         0.          0.         0.       
 rs eff              0.         0.          0.         0.       
 cdsat              22.3447a   44.0567a    44.0567a   44.0567a  
 cssat              22.3447a   44.0567a    44.0567a   44.0567a  
 capbd             313.1804a  582.4488a   582.4488a  582.4488a  
 capbs             260.4860a  477.0600a   477.0600a  477.0600a  
 temp               25.0000    25.0000     25.0000    25.0000   
 aic                                                            
 nf                  1.0000     1.0000      1.0000     1.0000   
 min                 0.         0.          0.         0.       
 rbdb               15.0000    15.0000     15.0000    15.0000   
 rbsb               15.0000    15.0000     15.0000    15.0000   
 rbpb                5.0000     5.0000      5.0000     5.0000   
 rbps               15.0000    15.0000     15.0000    15.0000   
 rbpd               15.0000    15.0000     15.0000    15.0000   
 trnqsmod            0.         0.          0.         0.       
 acnqsmod            0.         0.          0.         0.       
 rbodymod            1.0000     1.0000      1.0000     1.0000   
 rgatemod            1.0000     1.0000      1.0000     1.0000   
 geomod              0.         0.          0.         0.       
 rgeomod             0.         0.          0.         0.       
 delvto              0.         0.          0.         0.       
 mulu0               1.0000     1.0000      1.0000     1.0000   
 delk1               0.         0.          0.         0.       
 delnfct             0.         0.          0.         0.       
 deltox              0.         0.          0.         0.       
 sa                  0.         0.          0.         0.       
 sb                  0.         0.          0.         0.       
 sd                  0.         0.          0.         0.       
 saeff               0.         0.          0.         0.       
 sbeff               0.         0.          0.         0.       
  
  
                                                                  
 element name        7:mmx3     7:mmx2_b    7:mmx2     7:mmx_b    
 drain               7:cmbl     7:cmbl_b    7:cmbl     7:cmbl_b   
 gate                0:vdd!     0:vdd!      0:vdd!     0:b0sel_b0 
 source              0:vdd!     0:vdd!      0:vdd!     0:bl_b0    
 bulk                0:vdd!     0:vdd!      0:vdd!     0:vdd!     
 model               0:pmos     0:pmos      0:pmos     0:pmos     
 w eff             518.0000n  518.0000n   518.0000n  518.0000n    
 l eff              29.0000n   29.0000n    29.0000n   29.0000n    
 rd eff              0.         0.          0.         0.         
 rs eff              0.         0.          0.         0.         
 cdsat              44.0567a   44.0567a    44.0567a   44.0567a    
 cssat              44.0567a   44.0567a    44.0567a   44.0567a    
 capbd             582.4488a  582.4488a   582.4488a  582.4488a    
 capbs             477.0600a  477.0600a   477.0600a  477.0600a    
 temp               25.0000    25.0000     25.0000    25.0000     
 aic                                                              
 nf                  1.0000     1.0000      1.0000     1.0000     
 min                 0.         0.          0.         0.         
 rbdb               15.0000    15.0000     15.0000    15.0000     
 rbsb               15.0000    15.0000     15.0000    15.0000     
 rbpb                5.0000     5.0000      5.0000     5.0000     
 rbps               15.0000    15.0000     15.0000    15.0000     
 rbpd               15.0000    15.0000     15.0000    15.0000     
 trnqsmod            0.         0.          0.         0.         
 acnqsmod            0.         0.          0.         0.         
 rbodymod            1.0000     1.0000      1.0000     1.0000     
 rgatemod            1.0000     1.0000      1.0000     1.0000     
 geomod              0.         0.          0.         0.         
 rgeomod             0.         0.          0.         0.         
 delvto              0.         0.          0.         0.         
 mulu0               1.0000     1.0000      1.0000     1.0000     
 delk1               0.         0.          0.         0.         
 delnfct             0.         0.          0.         0.         
 deltox              0.         0.          0.         0.         
 sa                  0.         0.          0.         0.         
 sb                  0.         0.          0.         0.         
 sd                  0.         0.          0.         0.         
 saeff               0.         0.          0.         0.         
 sbeff               0.         0.          0.         0.         
  
  
                                                                 
 element name        7:mmx         7:mtail    7:m1       7:m2    
 drain               7:cmbl        7:tail     7:tail     7:sbl_b 
 gate                0:b0sel_b0    0:b0sae    7:sbl_b    7:sbl   
 source              0:bl0         0:0        7:sbl      7:tail  
 bulk                0:vdd!        0:0        0:0        0:0     
 model               0:pmos        0:nmos     0:nmos     0:nmos  
 w eff             518.0000n     166.0000n  122.0000n  122.0000n 
 l eff              29.0000n      29.0000n   29.0000n   29.0000n 
 rd eff              0.            0.         0.         0.      
 rs eff              0.            0.         0.         0.      
 cdsat              44.0567a      15.1073a   11.4887a   11.4887a 
 cssat              44.0567a      15.1073a   11.4887a   11.4887a 
 capbd             582.4488a     223.4243a  178.5462a  178.5462a 
 capbs             477.0600a     188.2947a  152.1990a  152.1990a 
 temp               25.0000       25.0000    25.0000    25.0000  
 aic                                                             
 nf                  1.0000        1.0000     1.0000     1.0000  
 min                 0.            0.         0.         0.      
 rbdb               15.0000       15.0000    15.0000    15.0000  
 rbsb               15.0000       15.0000    15.0000    15.0000  
 rbpb                5.0000        5.0000     5.0000     5.0000  
 rbps               15.0000       15.0000    15.0000    15.0000  
 rbpd               15.0000       15.0000    15.0000    15.0000  
 trnqsmod            0.            0.         0.         0.      
 acnqsmod            0.            0.         0.         0.      
 rbodymod            1.0000        1.0000     1.0000     1.0000  
 rgatemod            1.0000        1.0000     1.0000     1.0000  
 geomod              0.            0.         0.         0.      
 rgeomod             0.            0.         0.         0.      
 delvto              0.            0.         0.         0.      
 mulu0               1.0000        1.0000     1.0000     1.0000  
 delk1               0.            0.         0.         0.      
 delnfct             0.            0.         0.         0.      
 deltox              0.            0.         0.         0.      
 sa                  0.            0.         0.         0.      
 sb                  0.            0.         0.         0.      
 sd                  0.            0.         0.         0.      
 saeff               0.            0.         0.         0.      
 sbeff               0.            0.         0.         0.      
  
  
                                                                
 element name       17:m1      17:m2      18:m1       18:m2     
 drain               0:b3sae    0:b3sae    1:net8      1:net8   
 gate                1:net10    1:net10    0:net131    0:net131 
 source              0:vdd!     0:0        0:vdd!      0:0      
 bulk                0:vdd!     0:0        0:vdd!      0:0      
 model               0:pmos     0:nmos     0:pmos      0:nmos   
 w eff             342.0000n  166.0000n  342.0000n   166.0000n  
 l eff              29.0000n   29.0000n   29.0000n    29.0000n  
 rd eff              0.         0.         0.          0.       
 rs eff              0.         0.         0.          0.       
 cdsat              29.5820a   15.1073a   29.5820a    15.1073a  
 cssat              29.5820a   15.1073a   29.5820a    15.1073a  
 capbd             402.9365a  223.4243a  402.9365a   223.4243a  
 capbs             332.6773a  188.2947a  332.6773a   188.2947a  
 temp               25.0000    25.0000    25.0000     25.0000   
 aic                                                            
 nf                  1.0000     1.0000     1.0000      1.0000   
 min                 0.         0.         0.          0.       
 rbdb               15.0000    15.0000    15.0000     15.0000   
 rbsb               15.0000    15.0000    15.0000     15.0000   
 rbpb                5.0000     5.0000     5.0000      5.0000   
 rbps               15.0000    15.0000    15.0000     15.0000   
 rbpd               15.0000    15.0000    15.0000     15.0000   
 trnqsmod            0.         0.         0.          0.       
 acnqsmod            0.         0.         0.          0.       
 rbodymod            1.0000     1.0000     1.0000      1.0000   
 rgatemod            1.0000     1.0000     1.0000      1.0000   
 geomod              0.         0.         0.          0.       
 rgeomod             0.         0.         0.          0.       
 delvto              0.         0.         0.          0.       
 mulu0               1.0000     1.0000     1.0000      1.0000   
 delk1               0.         0.         0.          0.       
 delnfct             0.         0.         0.          0.       
 deltox              0.         0.         0.          0.       
 sa                  0.         0.         0.          0.       
 sb                  0.         0.         0.          0.       
 sd                  0.         0.         0.          0.       
 saeff               0.         0.         0.          0.       
 sbeff               0.         0.         0.          0.       
  
  
                                                                
 element name       19:m2      19:m0       19:m3      19:m1     
 drain               1:net10    1:net10    19:mid_a    1:net10  
 gate                0:sae      0:block3    0:sae      0:block3 
 source              0:vdd!     0:vdd!      0:0       19:mid_a  
 bulk                0:vdd!     0:vdd!      0:0        0:0      
 model               0:pmos     0:pmos      0:nmos     0:nmos   
 w eff             166.0000n  166.0000n   166.0000n  166.0000n  
 l eff              29.0000n   29.0000n    29.0000n   29.0000n  
 rd eff              0.         0.          0.         0.       
 rs eff              0.         0.          0.         0.       
 cdsat              15.1073a   15.1073a    15.1073a   15.1073a  
 cssat              15.1073a   15.1073a    15.1073a   15.1073a  
 capbd             223.4243a  223.4243a   223.4243a  223.4243a  
 capbs             188.2947a  188.2947a   188.2947a  188.2947a  
 temp               25.0000    25.0000     25.0000    25.0000   
 aic                                                            
 nf                  1.0000     1.0000      1.0000     1.0000   
 min                 0.         0.          0.         0.       
 rbdb               15.0000    15.0000     15.0000    15.0000   
 rbsb               15.0000    15.0000     15.0000    15.0000   
 rbpb                5.0000     5.0000      5.0000     5.0000   
 rbps               15.0000    15.0000     15.0000    15.0000   
 rbpd               15.0000    15.0000     15.0000    15.0000   
 trnqsmod            0.         0.          0.         0.       
 acnqsmod            0.         0.          0.         0.       
 rbodymod            1.0000     1.0000      1.0000     1.0000   
 rgatemod            1.0000     1.0000      1.0000     1.0000   
 geomod              0.         0.          0.         0.       
 rgeomod             0.         0.          0.         0.       
 delvto              0.         0.          0.         0.       
 mulu0               1.0000     1.0000      1.0000     1.0000   
 delk1               0.         0.          0.         0.       
 delnfct             0.         0.          0.         0.       
 deltox              0.         0.          0.         0.       
 sa                  0.         0.          0.         0.       
 sb                  0.         0.          0.         0.       
 sd                  0.         0.          0.         0.       
 saeff               0.         0.          0.         0.       
 sbeff               0.         0.          0.         0.       
  
  
                                                                        
 element name       20:m2         20:m0         20:m3       20:m1       
 drain               0:b3sel_b6    0:b3sel_b6   20:mid_a     0:b3sel_b6 
 gate                0:block3      1:net8        0:block3    1:net8     
 source              0:vdd!        0:vdd!        0:0        20:mid_a    
 bulk                0:vdd!        0:vdd!        0:0         0:0        
 model               0:pmos        0:pmos        0:nmos      0:nmos     
 w eff             166.0000n     166.0000n     166.0000n   166.0000n    
 l eff              29.0000n      29.0000n      29.0000n    29.0000n    
 rd eff              0.            0.            0.          0.         
 rs eff              0.            0.            0.          0.         
 cdsat              15.1073a      15.1073a      15.1073a    15.1073a    
 cssat              15.1073a      15.1073a      15.1073a    15.1073a    
 capbd             223.4243a     223.4243a     223.4243a   223.4243a    
 capbs             188.2947a     188.2947a     188.2947a   188.2947a    
 temp               25.0000       25.0000       25.0000     25.0000     
 aic                                                                    
 nf                  1.0000        1.0000        1.0000      1.0000     
 min                 0.            0.            0.          0.         
 rbdb               15.0000       15.0000       15.0000     15.0000     
 rbsb               15.0000       15.0000       15.0000     15.0000     
 rbpb                5.0000        5.0000        5.0000      5.0000     
[...]
  gm         155.9948n      3.4480n     18.7768n    389.2246p      7.1477n
  gds         14.9097n    429.0691u      2.5707n    400.1497u    534.0995p
  gmb         35.2007n      1.6218n      5.5462n    156.4662p      2.0558n
  cdtot      342.2843a    278.2381a    189.5551a    271.3153a    152.0530a
  cgtot      222.4091a    170.8655a     94.4591a    169.6916a     80.3593a
  cstot      389.2212a    193.4904a    174.4334a    190.6491a    168.0788a
  cbtot      591.2849a    308.5328a    304.6455a    300.8966a    274.8885a
  cgs        110.1425a     93.3242a     40.0142a     93.0363a     36.8881a
  cgd         71.1830a     78.1892a     36.8874a     76.8569a     25.9135a



 subckt     xdecoder.x   xdecoder.x   xdecoder.x   xdecoder.x   xdecoder.x
 element  258:m7       258:m6       258:m0       259:m10      259:m9      
 model      0:pmos       0:pmos       0:pmos       0:nmos       0:nmos    
 region         Linear       Cutoff       Linear       Cutoff       Cutoff
  id        -444.6228p    -30.3820f   -444.6228p    361.0700p    361.1004p
  ibs       -1.017e-25    1.111e-28   -1.017e-25    1.656e-26    -17.6497f
  ibd          2.7510a      2.7510a      2.7510a    -17.6497f    -67.9887f
  vgs       -909.9840m      0.        -909.9840m     15.9531u    -17.6430m
  vds         -2.7490u     -2.7490u     -2.7490u     17.6430m     50.3332m
  vbs          0.           0.           0.           0.         -17.6430m
  vth       -310.7632m   -310.7632m   -310.7632m    369.3920m    371.4078m
  vdsat     -451.0566m    -46.2174m   -451.0566m     40.2305m     40.2531m
  vod       -599.2209m    310.7632m   -599.2209m   -369.3760m   -389.0508m
  beta       330.3521u    367.4758u    330.3521u      2.8099m      2.8028m
  gam eff    394.0000m    394.0000m    394.0000m    441.0000m    441.0000m
  gm         467.9283p    797.9244f    467.9283p      9.2370n      9.2941n
  gds        161.7389u     11.0517n    161.7389u     15.2780n      2.5408n
  gmb        173.5499p    191.4755f    173.5499p      2.7460n      2.7533n
  cdtot      375.1534a    258.8319a    375.1534a    194.8033a    190.2388a
  cgtot      253.0974a    136.6818a    253.0974a     96.8622a     94.0518a
  cstot      258.2444a    228.0318a    258.2444a    174.4334a    172.9294a
  cbtot      393.4783a    393.7701a    393.4783a    307.4904a    304.2327a
  cgs        142.0831a     57.4452a    142.0831a     40.0141a     39.2907a
  cgd        111.2916a     57.4431a    111.2916a     39.2906a     37.2032a



 subckt     xdecoder.x   xdecoder.x   xdecoder.x   xdecoder.x   xdecoder.x
 element  259:m1       259:m7       259:m6       259:m0       260:m10     
 model      0:nmos       0:pmos       0:pmos       0:pmos       0:nmos    
 region         Cutoff       Linear       Linear       Linear       Cutoff
  id         361.1594p   -324.6364p   -324.6419p   -324.6364p    734.3655p
  ibs        -67.9887f   -1.017e-25   -1.018e-25   -1.017e-25    7.105e-26
  ibd       -910.0115f      2.0086a      2.0086a      2.0086a    -75.7438f
  vgs        -67.9603m   -909.9840m   -910.0000m   -909.9840m     15.9531u
  vds        842.0218m     -2.0072u     -2.0072u     -2.0072u     75.7310m
  vbs        -67.9762m      0.           0.           0.           0.     
  vth        329.2992m   -310.7632m   -310.7632m   -310.7632m    365.4290m
  vdsat       39.9933m   -451.0565m   -451.0660m   -451.0565m     40.2044m
  vod       -397.2595m   -599.2208m   -599.2368m   -599.2208m   -365.4130m
  beta         2.9536m    330.3521u    330.3498u    330.3521u      2.8239m
  gam eff    441.0000m    394.0000m    394.0000m    394.0000m    441.0000m
  gm           9.3876n    341.6524p    341.6443p    341.6524p     18.7768n
  gds        701.4766p    161.7392u    161.7419u    161.7392u      2.5707n
  gmb          2.6978n    126.7155p    126.7144p    126.7155p      5.5462n
  cdtot      152.0530a    375.1537a    375.1543a    375.1537a    189.5551a
  cgtot       80.6759a    253.0974a    253.0978a    253.0974a     94.4591a
  cstot      168.7119a    258.2442a    258.2442a    258.2442a    174.4334a
  cbtot      275.2050a    393.4784a    393.4784a    393.4784a    304.6455a
  cgs         37.2047a    142.0830a    142.0832a    142.0830a     40.0142a
  cgd         25.9135a    111.2917a    111.2920a    111.2917a     36.8874a



 subckt     xdecoder.x   xdecoder.x   xdecoder.x   xdecoder.x   xdecoder.x
 element  260:m9       260:m1       260:m7       260:m6       260:m0      
 model      0:nmos       0:nmos       0:pmos       0:pmos       0:pmos    
 region         Linear       Cutoff       Linear       Cutoff       Linear
  id         504.3522p    274.3382p   -444.6228p    -30.3820f   -444.6228p
  ibs        -75.7438f    -75.7450f   -1.017e-25    1.111e-28   -1.017e-25
  ibd        -75.7450f   -910.0107f      2.7510a      2.7510a      2.7510a
  vgs        834.2690m    -75.7163m   -909.9840m      0.        -909.9840m
  vds          1.2604u    834.2650m     -2.7490u     -2.7490u     -2.7490u
  vbs        -75.7310m    -75.7323m      0.           0.           0.     
  vth        388.5467m    331.6349m   -310.7632m   -310.7632m   -310.7632m
  vdsat      257.2601m     40.0121m   -451.0566m    -46.2174m   -451.0566m
  vod        445.7223m   -407.3512m   -599.2209m    310.7632m   -599.2209m
  beta         2.3240m      2.9452m    330.3521u    367.4758u    330.3521u
  gam eff    441.0000m    441.0000m    394.0000m    394.0000m    394.0000m
  gm         389.2246p      7.1477n    467.9283p    797.9244f    467.9283p
  gds        400.1497u    534.0995p    161.7389u     11.0517n    161.7389u
  gmb        156.4662p      2.0558n    173.5499p    191.4755f    173.5499p
  cdtot      271.3153a    152.0530a    375.1534a    258.8319a    375.1534a
  cgtot      169.6916a     80.3593a    253.0974a    136.6818a    253.0974a
  cstot      190.6491a    168.0788a    258.2444a    228.0318a    258.2444a
  cbtot      300.8966a    274.8885a    393.4783a    393.7701a    393.4783a
  cgs         93.0363a     36.8881a    142.0831a     57.4452a    142.0831a
  cgd         76.8569a     25.9135a    111.2916a     57.4431a    111.2916a



 subckt     xdecoder.x   xdecoder.x   xdecoder.x   xdecoder.x   xdecoder.x
 element  261:m10      261:m9       261:m1       261:m7       261:m6      
 model      0:nmos       0:nmos       0:nmos       0:pmos       0:pmos    
 region         Cutoff       Cutoff       Cutoff       Linear       Linear
  id         361.0700p    361.1004p    361.1594p   -324.6364p   -324.6419p
  ibs        1.656e-26    -17.6497f    -67.9887f   -1.017e-25   -1.018e-25
  ibd        -17.6497f    -67.9887f   -910.0115f      2.0086a      2.0086a
  vgs         15.9531u    -17.6430m    -67.9603m   -909.9840m   -910.0000m
  vds         17.6430m     50.3332m    842.0218m     -2.0072u     -2.0072u
  vbs          0.         -17.6430m    -67.9762m      0.           0.     
  vth        369.3920m    371.4078m    329.2992m   -310.7632m   -310.7632m
  vdsat       40.2305m     40.2531m     39.9933m   -451.0565m   -451.0660m
  vod       -369.3760m   -389.0508m   -397.2595m   -599.2208m   -599.2368m
  beta         2.8099m      2.8028m      2.9536m    330.3521u    330.3498u
  gam eff    441.0000m    441.0000m    441.0000m    394.0000m    394.0000m
  gm           9.2370n      9.2941n      9.3876n    341.6524p    341.6443p
  gds         15.2780n      2.5408n    701.4766p    161.7392u    161.7419u
  gmb          2.7460n      2.7533n      2.6978n    126.7155p    126.7144p
  cdtot      194.8033a    190.2388a    152.0530a    375.1537a    375.1543a
  cgtot       96.8622a     94.0518a     80.6759a    253.0974a    253.0978a
  cstot      174.4334a    172.9294a    168.7119a    258.2442a    258.2442a
  cbtot      307.4904a    304.2327a    275.2050a    393.4784a    393.4784a
  cgs         40.0141a     39.2907a     37.2047a    142.0830a    142.0832a
  cgd         39.2906a     37.2032a     25.9135a    111.2917a    111.2920a



 subckt     xdecoder.x   xclk_gen.x   xclk_gen.x   xclk_gen.x   xclk_gen.x
 element  261:m0       265:m_0      265:m_1      266:m_0      266:m_1     
 model      0:pmos       0:nmos       0:pmos       0:nmos       0:pmos    
 region         Linear       Cutoff       Linear       Linear       Cutoff
  id        -324.6364p      6.4321n    -11.2473n     44.4185n    -45.9884n
  ibs       -1.017e-25    8.539e-25   -3.668e-25    7.814e-25   -3.421e-24
  ibd          2.0086a   -910.0015f     19.5358a    -63.8644a      3.6402p
  vgs       -909.9840m      0.        -910.0000m    909.9805m    -19.4896u
  vds         -2.0072u    909.9805m    -19.4896u     15.9531u   -909.9840m
  vbs          0.           0.           0.           0.           0.     
  vth       -310.7632m    308.5172m   -310.7617m    370.5946m   -233.3542m
  vdsat     -451.0565m     39.8672m   -451.5598m    298.5525m    -46.1790m
  vod       -599.2208m   -308.5172m   -599.2383m    539.3859m    233.3347m
  beta       330.3521u      5.0291m      1.1883m     15.0765m      5.9495m
  gam eff    394.0000m    441.0000m    394.0000m    441.0000m    394.0000m
  gm         341.6524p    162.3044n     11.7430n     23.2405n      1.1717u
  gds        161.7392u     12.1397n    577.0789u      2.7842m    111.9895n
  gmb        126.7155p     46.2300n      4.3547n     10.9227n    264.3962n
  cdtot      375.1537a    223.5163a      1.2087f      1.7044f      2.4161f
  cgtot      253.0974a    138.0976a    908.5197a      1.1326f      1.6671f
  cstot      258.2442a    255.0960a    793.3472a      1.1469f      2.7388f
  cbtot      393.4784a    397.8282a      1.1370f      1.7657f      4.0996f
  cgs        142.0830a     66.4264a    511.1133a    619.6731a    826.8811a
  cgd        111.2917a     43.0162a    400.3323a    519.1739a    534.3892a



 subckt     xclk_gen.x   xclk_gen.x   xclk_gen.x   xclk_gen.x   xa0_gen.xg
 element  267:m_0      267:m_1      268:m_0      268:m_1      269:m_0     
 model      0:nmos       0:pmos       0:nmos       0:pmos       0:nmos    
 region         Cutoff       Linear       Linear       Cutoff       Cutoff
  id         102.9548n   -179.9982n    776.1139n   -735.8122n      6.4321n
  ibs        1.366e-23   -5.867e-24    1.250e-23   -5.474e-23    8.539e-25
  ibd        -14.5600p    312.6504a     -1.1159f     58.2428p   -910.0015f
  vgs         15.9531u   -909.9840m    909.9805m    -19.4945u      0.     
  vds        909.9805m    -19.4945u     17.4216u   -909.9826m    909.9805m
  vbs          0.           0.           0.           0.           0.     
  vth        308.5172m   -310.7617m    370.5945m   -233.3543m    308.5172m
  vdsat       39.8673m   -451.5504m    298.5525m    -46.1790m     39.8672m
  vod       -308.5013m   -599.2223m    539.3860m    233.3348m   -308.5172m
  beta        80.4659m     19.0136m    241.2245m     95.1927m      5.0291m
  gam eff    441.0000m    394.0000m    441.0000m    394.0000m    441.0000m
  gm           2.5979u    187.9386n    406.0786n     18.7472u    162.3044n
  gds        194.3128n      9.2331m     44.5478m      1.7918u     12.1397n
  gmb        739.9664n     69.6936n    190.8505n      4.2303u     46.2300n
  cdtot        3.5763f     19.3387f     27.2696f     38.6573f    223.5163a
  cgtot        2.2096f     14.5363f     18.1214f     26.6734f    138.0976a
  cstot        4.0816f     12.6936f     18.3507f     43.8215f    255.0960a
  cbtot        6.3652f     18.1928f     28.2511f     65.5941f    397.8282a
  cgs          1.0628f      8.1778f      9.9148f     13.2301f     66.4264a
  cgd        688.2607a      6.4053f      8.3068f      8.5502f     43.0162a



 subckt     xa0_gen.xg   xa0_gen.xg   xa0_gen.xg   xa0_gen.xg   xa0_gen.xg
 element  269:m_1      270:m_0      270:m_1      271:m_0      271:m_1     
 model      0:pmos       0:nmos       0:pmos       0:nmos       0:pmos    
 region         Linear       Linear       Cutoff       Cutoff       Linear
  id         -11.2473n     44.4185n    -45.9884n    102.9548n   -179.9982n
  ibs       -3.668e-25    7.814e-25   -3.421e-24    1.366e-23   -5.867e-24
  ibd         19.5358a    -63.8644a      3.6402p    -14.5600p    312.6504a
  vgs       -910.0000m    909.9805m    -19.4896u     15.9531u   -909.9840m
  vds        -19.4896u     15.9531u   -909.9840m    909.9805m    -19.4945u
  vbs          0.           0.           0.           0.           0.     
  vth       -310.7617m    370.5946m   -233.3542m    308.5172m   -310.7617m
  vdsat     -451.5598m    298.5525m    -46.1790m     39.8673m   -451.5504m
  vod       -599.2383m    539.3859m    233.3347m   -308.5013m   -599.2223m
  beta         1.1883m     15.0765m      5.9495m     80.4659m     19.0136m
  gam eff    394.0000m    441.0000m    394.0000m    441.0000m    394.0000m
  gm          11.7430n     23.2405n      1.1717u      2.5979u    187.9386n
  gds        577.0789u      2.7842m    111.9895n    194.3128n      9.2331m
  gmb          4.3547n     10.9227n    264.3962n    739.9664n     69.6936n
  cdtot        1.2087f      1.7044f      2.4161f      3.5763f     19.3387f
  cgtot      908.5197a      1.1326f      1.6671f      2.2096f     14.5363f
  cstot      793.3472a      1.1469f      2.7388f      4.0816f     12.6936f
  cbtot        1.1370f      1.7657f      4.0996f      6.3652f     18.1928f
  cgs        511.1133a    619.6731a    826.8811a      1.0628f      8.1778f
  cgd        400.3323a    519.1739a    534.3892a    688.2607a      6.4053f



 subckt     xa0_gen.xg   xa0_gen.xg   xa255_gen.   xa255_gen.   xa255_gen.
 element  272:m_0      272:m_1      273:m_0      273:m_1      274:m_0     
 model      0:nmos       0:pmos       0:nmos       0:pmos       0:nmos    
 region         Linear       Cutoff       Cutoff       Linear       Linear
  id         776.1139n   -735.8122n      6.4321n    -11.2473n     44.4185n
  ibs        1.250e-23   -5.474e-23    8.539e-25   -3.668e-25    7.814e-25
  ibd         -1.1159f     58.2428p   -910.0015f     19.5358a    -63.8644a
  vgs        909.9805m    -19.4945u      0.        -910.0000m    909.9805m
  vds         17.4216u   -909.9826m    909.9805m    -19.4896u     15.9531u
  vbs          0.           0.           0.           0.           0.     
  vth        370.5945m   -233.3543m    308.5172m   -310.7617m    370.5946m
  vdsat      298.5525m    -46.1790m     39.8672m   -451.5598m    298.5525m
  vod        539.3860m    233.3348m   -308.5172m   -599.2383m    539.3859m
  beta       241.2245m     95.1927m      5.0291m      1.1883m     15.0765m
  gam eff    441.0000m    394.0000m    441.0000m    394.0000m    441.0000m
  gm         406.0786n     18.7472u    162.3044n     11.7430n     23.2405n
  gds         44.5478m      1.7918u     12.1397n    577.0789u      2.7842m
  gmb        190.8505n      4.2303u     46.2300n      4.3547n     10.9227n
  cdtot       27.2696f     38.6573f    223.5163a      1.2087f      1.7044f
  cgtot       18.1214f     26.6734f    138.0976a    908.5197a      1.1326f
  cstot       18.3507f     43.8215f    255.0960a    793.3472a      1.1469f
  cbtot       28.2511f     65.5941f    397.8282a      1.1370f      1.7657f
  cgs          9.9148f     13.2301f     66.4264a    511.1133a    619.6731a
  cgd          8.3068f      8.5502f     43.0162a    400.3323a    519.1739a



 subckt     xa255_gen.   xa255_gen.   xa255_gen.   xa255_gen.   xa255_gen.
 element  274:m_1      275:m_0      275:m_1      276:m_0      276:m_1     
 model      0:pmos       0:nmos       0:pmos       0:nmos       0:pmos    
 region         Cutoff       Cutoff       Linear       Linear       Cutoff
  id         -45.9884n    102.9548n   -179.9982n    776.1139n   -735.8122n
  ibs       -3.421e-24    1.366e-23   -5.867e-24    1.250e-23   -5.474e-23
  ibd          3.6402p    -14.5600p    312.6504a     -1.1159f     58.2428p
  vgs        -19.4896u     15.9531u   -909.9840m    909.9805m    -19.4945u
  vds       -909.9840m    909.9805m    -19.4945u     17.4216u   -909.9826m
  vbs          0.           0.           0.           0.           0.     
  vth       -233.3542m    308.5172m   -310.7617m    370.5945m   -233.3543m
  vdsat      -46.1790m     39.8673m   -451.5504m    298.5525m    -46.1790m
  vod        233.3347m   -308.5013m   -599.2223m    539.3860m    233.3348m
  beta         5.9495m     80.4659m     19.0136m    241.2245m     95.1927m
  gam eff    394.0000m    441.0000m    394.0000m    441.0000m    394.0000m
  gm           1.1717u      2.5979u    187.9386n    406.0786n     18.7472u
  gds        111.9895n    194.3128n      9.2331m     44.5478m      1.7918u
  gmb        264.3962n    739.9664n     69.6936n    190.8505n      4.2303u
  cdtot        2.4161f      3.5763f     19.3387f     27.2696f     38.6573f
  cgtot        1.6671f      2.2096f     14.5363f     18.1214f     26.6734f
  cstot        2.7388f      4.0816f     12.6936f     18.3507f     43.8215f
  cbtot        4.0996f      6.3652f     18.1928f     28.2511f     65.5941f
  cgs        826.8811a      1.0628f      8.1778f      9.9148f     13.2301f
  cgd        534.3892a    688.2607a      6.4053f      8.3068f      8.5502f



 ******  
 part 2

  ******  transient analysis tnom=  25.000 temp=  27.000 *****
 wl0_rise= 735.2672p  targ=   1.3070n   trig= 571.7788p
 wl0_width=-512.7093p  targ= 794.3367p   trig=   1.3070n
 wl0_fall=-277.7017p  targ= 794.3367p   trig=   1.0720n
 wl1_rise= 735.2245p  targ=   2.3070n   trig=   1.5718n
 wl1_fall=-277.5421p  targ=   1.7945n   trig=   2.0720n
 bl0_split=  70.3705m    at=   1.2009n
             from= 500.0000p    to=   1.5000n
 bl1_split=   4.8249m    at=   1.1922n
             from= 500.0000p    to=   1.5000n
 bl_pc_overlap=-403.6214p  targ= 794.3367p   trig=   1.1980n
 bl63_pc_overlap=-403.4610p  targ=   1.7945n   trig=   2.1979n
 clk-out0= 524.9189p  targ=   1.0967n   trig= 571.7788p
  **warning** (part2_decoder_Blocked_Slowed_Switched_WR_Voltages.hsp:136) .MEASURE  precharge never reached the target value, Measurement failed!
 precharge= failed       targ= not found    trig=   2.1979n
 sae-out0= 123.4579p  targ=   1.0967n   trig= 973.2398p
 out0-width= 317.9340p  targ=   1.4146n   trig=   1.0967n
 write_core_power=  -7.7633u  from=   2.0000n     to=   3.0000n
 vcell_power=  -1.1021m  from=   2.0000n     to=   3.0000n
 mem_core_power=  -1.1099m

          ***** job concluded
1****** HSPICE -- F-2011.09-SP2 32-BIT (Feb 27 2012) linux ******               
 ******  
 part 2

  ******  job statistics summary tnom=  25.000 temp=  27.000 *****
  
  
 ******  Machine Information  ******
 CPU:
 model name	: Intel(R) Core(TM)2 Duo CPU     E8500  @ 3.16GHz
 cpu MHz	: 3158.761
  
 OS:
 Linux version 3.2.0-30-generic (buildd@batsu) (gcc version 4.6.3 (Ubuntu/Linaro
  4.6.3-1ubuntu5) ) #48-Ubuntu SMP Fri Aug 24 16:52:48 UTC 2012


  ******  HSPICE Threads Information  ******

  Command Line Threads Count :     1
  Available CPU Count        :     2
  Actual Threads Count       :     1


  ******  Circuit Statistics  ******
  # nodes       =    3155 # elements   =     793
  # resistors   =       0 # capacitors =      54 # inductors   =       0
  # mutual_inds =       0 # vccs       =       0 # vcvs        =       3
  # cccs        =       6 # ccvs       =       0 # volt_srcs   =      30
  # curr_srcs   =       0 # diodes     =       0 # bjts        =       0
  # jfets       =       0 # mosfets    =     700 # U elements  =       0
  # T elements  =       0 # W elements =       0 # B elements  =       0
  # S elements  =       0 # P elements =       0 # va device   =       0
  # vector_srcs =       0


  ******  Runtime Statistics (seconds)  ******

  analysis           time    # points   tot. iter  conv.iter
  op point           0.36           1          77
  transient         26.82       16667       31884        3339 rev=       170
  readin             0.02
  errchk             0.10
  setup              0.04
  output             0.00


           peak memory used         96.57 megabytes
           total cpu time           27.34 seconds
           total elapsed time       28.20 seconds
           job started at     12:49:35 03/15/2013
           job ended   at     12:50:03 03/15/2013


 lic: Release hspice token(s) 
