Using: /usr/class/ee/synopsys/hspice/F-2011.09-SP2/hspice/linux/hspice part2_decoderSlow.hsp
 ****** HSPICE -- F-2011.09-SP2 32-BIT (Feb 27 2012) linux ******               
  Copyright (C) 2011 Synopsys, Inc. All Rights Reserved.                        
  Unpublished-rights reserved under US copyright laws.
  This program is protected by law and is subject to the
  terms and conditions of the license agreement from Synopsys.
  Use of this program is your acceptance to be bound by the
  license agreement. HSPICE is the trademark of Synopsys, Inc.
  Input File: part2_decoderSlow.hsp                                             
  Command line options: part2_decoderSlow.hsp
 lic:  
 lic: FLEXlm: v10.8 
 lic: USER:   ajdupree             HOSTNAME: corn18.stanford.edu 
 lic: HOSTID: 001b213a6905         PID:      22349 
 lic: Using FLEXlm license file: 
 lic: 27000@cadlic0.stanford.edu 
 lic: Checkout 1 hspice 
 lic: License/Maintenance for hspice will expire on 16-nov-2013/2012.06 
 lic: 2(in_use)/100(total) FLOATING license(s) on SERVER cadlic0.stanford.edu 
 lic:   
 Init: read install configuration file: /usr/class/ee/synopsys/hspice/F-2011.09-SP2/hspice/meta.cfg

 **warning**  runlvl smaller than 5, reset to 5  when accurate turned on
 scientific notation:
 a=10**-18  f=10**-15  p=10**-12  n=10**-9  u=10**-6
 m=10**-3   k=10**3    x=10**6    g=10**9 
  **warning** (/afs/ir/users/a/j/ajdupree/ee313/netlist/projectPart2.testrig.ckt:5) Global net name, "vdd", in subckt pin list. The pin will be connected to the local net. Recommend to not use global net names in subckt pin lists.

 **warning**  runlvl smaller than 5, reset to 5  when accurate turned on
1****** HSPICE -- F-2011.09-SP2 32-BIT (Feb 27 2012) linux ******               
 ******  
 part 2

  ******  circuit name directory
 circuit number to circuit name directory
   number circuitname                     definition         multiplier
        0 main circuit
        1 xarray.                         array              1.00 
        2 xdecoder.                       decoder            1.00 
        3 xsense63.                       sense              1.00 
        4 xsense0.                        sense              1.00 
        5 xclk_gen.                       clk_gen            1.00 
        6 xa0_gen.                        a0_gen             1.00 
        7 xa255_gen.                      a255_gen           1.00 
        8 xarray.xmcbr.                   mc                 1.00 
        9 xarray.xmcbm.                   mc               254.00 
       10 xarray.xmcbl.                   mc                 1.00 
       11 xarray.xmcml.                   mc               254.00 
       12 xarray.xmcmm.                   mc                64.52k
       13 xarray.xmcmr.                   mc               254.00 
       14 xarray.xmctr.                   mc                 1.00 
       15 xarray.xmctm.                   mc               254.00 
       16 xarray.xmctl.                   mc                 1.00 
       17 xarray.xwriter.                 write              1.00 
       18 xarray.xwritem.                 write            254.00 
       19 xarray.xwritel.                 write              1.00 
       20 xdecoder.xpredecoder416.        predecode_416      1.00 
       21 xdecoder.xdecoder_stage.        decode_stage       1.00 
       22 xdecoder.xpredecoder24.         predecode_24       1.00 
       23 xsense63.xu1.                   inv_pcell_9        1.00 
       24 xsense63.xu0.                   inv_pcell_9        1.00 
       25 xsense63.xu3.                   inv_pcell_10       1.00 
       26 xsense63.xu2.                   inv_pcell_10       1.00 
       27 xsense0.xu1.                    inv_pcell_9        1.00 
       28 xsense0.xu0.                    inv_pcell_9        1.00 
       29 xsense0.xu3.                    inv_pcell_10       1.00 
       30 xsense0.xu2.                    inv_pcell_10       1.00 
       31 xclk_gen.xgen.                  signal_gen         1.00 
       32 xa0_gen.xgen.                   signal_gen         1.00 
       33 xa255_gen.xgen.                 signal_gen         1.00 
       34 xarray.xwriter.xu0.             inv_pcell_0        1.00 
       35 xarray.xwriter.xu2.             inv_pcell_1        1.00 
       36 xarray.xwriter.xu1.             inv_pcell_1        1.00 
       37 xarray.xwritem.xu0.             inv_pcell_0      254.00 
       38 xarray.xwritem.xu2.             inv_pcell_1      254.00 
       39 xarray.xwritem.xu1.             inv_pcell_1      254.00 
       40 xarray.xwritel.xu0.             inv_pcell_0        1.00 
       41 xarray.xwritel.xu2.             inv_pcell_1        1.00 
       42 xarray.xwritel.xu1.             inv_pcell_1        1.00 
       43 xdecoder.xpredecoder416.xi16.   nand_pcell_2       1.00 
       44 xdecoder.xpredecoder416.xi15.   nand_pcell_2       1.00 
       45 xdecoder.xpredecoder416.xi17.   nand_pcell_2       1.00 
       46 xdecoder.xpredecoder416.xi18.   nand_pcell_2       1.00 
       47 xdecoder.xpredecoder416.xu15.   inv_pcell_3        1.00 
       48 xdecoder.xpredecoder416.xu14.   inv_pcell_3        1.00 
       49 xdecoder.xpredecoder416.xu13.   inv_pcell_3        1.00 
       50 xdecoder.xpredecoder416.xu12.   inv_pcell_3        1.00 
       51 xdecoder.xpredecoder416.xu11.   inv_pcell_4        1.00 
       52 xdecoder.xpredecoder416.xu10.   inv_pcell_4        1.00 
       53 xdecoder.xpredecoder416.xu9.    inv_pcell_4        1.00 
       54 xdecoder.xpredecoder416.xu8.    inv_pcell_4        1.00 
       55 xdecoder.xpredecoder416.xu0.    inv_pcell_5        1.00 
       56 xdecoder.xpredecoder416.xu1.    inv_pcell_5        1.00 
       57 xdecoder.xpredecoder416.xu2.    inv_pcell_5        1.00 
       58 xdecoder.xpredecoder416.xu3.    inv_pcell_5        1.00 
       59 xdecoder.xdecoder_stage.xu3.    nand_pcell_6       1.00 
       60 xdecoder.xdecoder_stage.xu2.    nand_pcell_6       1.00 
       61 xdecoder.xdecoder_stage.xu1.    nand_pcell_6       1.00 
       62 xdecoder.xdecoder_stage.xu0.    nand_pcell_6       1.00 
       63 xdecoder.xdecoder_stage.xu8.    inv_pcell_7        1.00 
       64 xdecoder.xdecoder_stage.xu7.    inv_pcell_7        1.00 
       65 xdecoder.xdecoder_stage.xu6.    inv_pcell_7        1.00 
       66 xdecoder.xdecoder_stage.xu5.    inv_pcell_7        1.00 
       67 xdecoder.xpredecoder24.xu3.     inv_pcell_8        1.00 
       68 xdecoder.xpredecoder24.xu2.     inv_pcell_8        1.00 
       69 xdecoder.xpredecoder24.xu1.     inv_pcell_8        1.00 
       70 xdecoder.xpredecoder24.xu0.     inv_pcell_8        1.00 
       71 xdecoder.xpredecoder24.xi36.    nand3              1.00 
       72 xdecoder.xpredecoder24.xi37.    nand3              1.00 
       73 xdecoder.xpredecoder24.xi38.    nand3              1.00 
       74 xdecoder.xpredecoder24.xi39.    nand3              1.00 
       75 xclk_gen.xgen.x_0.              inv_chain_stimulus
                                                                 1.00 
       76 xa0_gen.xgen.x_0.               inv_chain_stimulus
                                                                 1.00 
       77 xa255_gen.xgen.x_0.             inv_chain_stimulus
                                                                 1.00 
       78 xclk_gen.xgen.x_0.x_0.          inv_stimulus       1.00 
       79 xclk_gen.xgen.x_0.x_1.          inv_stimulus       4.00 
       80 xclk_gen.xgen.x_0.x_2.          inv_stimulus      16.00 
       81 xclk_gen.xgen.x_0.x_3.          inv_stimulus      64.00 
       82 xa0_gen.xgen.x_0.x_0.           inv_stimulus       1.00 
       83 xa0_gen.xgen.x_0.x_1.           inv_stimulus       4.00 
       84 xa0_gen.xgen.x_0.x_2.           inv_stimulus      16.00 
       85 xa0_gen.xgen.x_0.x_3.           inv_stimulus      64.00 
       86 xa255_gen.xgen.x_0.x_0.         inv_stimulus       1.00 
       87 xa255_gen.xgen.x_0.x_1.         inv_stimulus       4.00 
       88 xa255_gen.xgen.x_0.x_2.         inv_stimulus      16.00 
       89 xa255_gen.xgen.x_0.x_3.         inv_stimulus      64.00 


 circuit parameter definitions
  parameter          =  value 

     0:supply                                                  =   1.0000       
     0:tcyc                                                    =   1.0000n      
     0:trf                                                     =  50.0000p      
     0:pd24s1pw                                                =   7.0000       
     0:pd24s1nw                                                =   5.0000       
     0:pd24s2pw                                                =  20.0000       
     0:pd24s2nw                                                =   7.0000       
     0:pd416s3pw                                               =  12.0000       
     0:pd416s3nw                                               =   6.0000       
     0:pd416s4pw                                               =  35.0000       
     0:pd416s4nw                                               =  11.0000       
     0:pd416s5pw                                               =  96.0000       
     0:pd416s5nw                                               =  32.0000       
     0:pd416s6pw                                               = 265.0000       
     0:pd416s6nw                                               =  88.0000       
     0:dss7pw                                                  =  10.0000       
     0:dss7nw                                                  =   4.0000       
     0:dss8pw                                                  =  35.0000       
     0:dss8nw                                                  =  12.0000       
     0:wl0_rise                                                =   0.           
     0:wl0_width                                               =   0.           
     0:wl0_fall                                                =   0.           
     0:wl1_rise                                                =   0.           
     0:wl1_fall                                                =   0.           
     0:bl0_split                                               =   0.           
     0:bl1_split                                               =   0.           
     0:bl_pc_overlap                                           =   0.           
     0:bl63_pc_overlap                                         =   0.           
    71:nl                                                      =   2.0000       
    71:nw                                                      =   5.0000       
    71:nm                                                      =   1.0000       
    71:pl                                                      =   2.0000       
    71:pw                                                      =   7.0000       
    71:pm                                                      =   1.0000       
    78:wp                                                      =  24.0000       
    78:lp                                                      =   2.0000       
    78:wn                                                      =   8.0000       
    78:ln                                                      =   2.0000       
    79:wp                                                      =  24.0000       
    79:lp                                                      =   2.0000       
    79:wn                                                      =   8.0000       
    79:ln                                                      =   2.0000       
    80:wp                                                      =  24.0000       
    80:lp                                                      =   2.0000       
    80:wn                                                      =   8.0000       
    80:ln                                                      =   2.0000       
    81:wp                                                      =  24.0000       
    81:lp                                                      =   2.0000       
    81:wn                                                      =   8.0000       
    81:ln                                                      =   2.0000       
    82:wp                                                      =  24.0000       
    82:lp                                                      =   2.0000       
    82:wn                                                      =   8.0000       
    82:ln                                                      =   2.0000       
    83:wp                                                      =  24.0000       
    83:lp                                                      =   2.0000       
    83:wn                                                      =   8.0000       
    83:ln                                                      =   2.0000       
    84:wp                                                      =  24.0000       
    84:lp                                                      =   2.0000       
    84:wn                                                      =   8.0000       
    84:ln                                                      =   2.0000       
    85:wp                                                      =  24.0000       
    85:lp                                                      =   2.0000       
    85:wn                                                      =   8.0000       
    85:ln                                                      =   2.0000       
    86:wp                                                      =  24.0000       
    86:lp                                                      =   2.0000       
    86:wn                                                      =   8.0000       
    86:ln                                                      =   2.0000       
    87:wp                                                      =  24.0000       
    87:lp                                                      =   2.0000       
    87:wn                                                      =   8.0000       
    87:ln                                                      =   2.0000       
    88:wp                                                      =  24.0000       
    88:lp                                                      =   2.0000       
    88:wn                                                      =   8.0000       
    88:ln                                                      =   2.0000       
    89:wp                                                      =  24.0000       
    89:lp                                                      =   2.0000       
    89:wn                                                      =   8.0000       
    89:ln                                                      =   2.0000       




 constants  - tnom         kt           vt           gapsi        ni
            298.15000    4.1163e-21    25.69184m     1.11562    1.2565e+16 
  **info** (part2_decoderSlow.hsp:62) DC voltage reset to initial transient source value              in source        0:vblpc_b             new dc=  0.1000D+01
  **warning** (/usr/class/ee313/ee313_spice_header.h:18) Both nodes of element vgnd are connected together; Line ignored.
 ** warning** associated with encrypted blocks were suppressed

1****** HSPICE -- F-2011.09-SP2 32-BIT (Feb 27 2012) linux ******               
 ******  
 part 2

  ******  circuit element summary tnom=  25.000 temp=  25.000 *****


 **** capacitors
  
  
                                                                    
 element name        2:c1           2:c0        3:c1        3:c0    
 node1               2:predec_25    2:predec    0:sapc_b    0:sae   
 node2               0:0            0:0         0:0         0:0     
 model                                                              
 cap eff            22.5300f       22.5300f   560.0000a   560.0000a 
 tc1                 0.             0.          0.          0.      
 tc2                 0.             0.          0.          0.      
 scale               1.0000         1.0000      1.0000      1.0000  
 ic                  0.             0.          0.          0.      
 m                   1.0000         1.0000      1.0000      1.0000  
 w                   0.             0.          0.          0.      
 l                   0.             0.          0.          0.      
 temp               25.0000        25.0000     25.0000     25.0000  
  
  
                                                                
 element name        4:c1        4:c0       8:c2       8:c1     
 node1               0:sapc_b    0:sae      0:bl63     0:bl_b63 
 node2               0:0         0:0        0:0        0:0      
 model                                                          
 cap eff           560.0000a   560.0000a   88.0000a   88.0000a  
 tc1                 0.          0.         0.         0.       
 tc2                 0.          0.         0.         0.       
 scale               1.0000      1.0000     1.0000     1.0000   
 ic                  0.          0.         0.         0.       
 m                   1.0000      1.0000     1.0000     1.0000   
 w                   0.          0.         0.         0.       
 l                   0.          0.         0.         0.       
 temp               25.0000     25.0000    25.0000    25.0000   
  
  
                                                              
 element name        8:c0       9:c2       9:c1       9:c0    
 node1               0:wl255    0:net24    0:net23    0:wl255 
 node2               0:0        0:0        0:0        0:0     
 model                                                        
 cap eff           140.0000a   22.3520f   22.3520f   35.5600f 
 tc1                 0.         0.         0.         0.      
 tc2                 0.         0.         0.         0.      
 scale               1.0000     1.0000     1.0000     1.0000  
 ic                  0.         0.         0.         0.      
 m                   1.0000   254.0000   254.0000   254.0000  
 w                   0.         0.         0.         0.      
 l                   0.         0.         0.         0.      
 temp               25.0000    25.0000    25.0000    25.0000  
  
  
                                                              
 element name       10:c2      10:c1      10:c0      11:c2    
 node1               0:bl0      0:bl_b0    0:wl255    0:bl0   
 node2               0:0        0:0        0:0        0:0     
 model                                                        
 cap eff            88.0000a   88.0000a  140.0000a   22.3520f 
 tc1                 0.         0.         0.         0.      
 tc2                 0.         0.         0.         0.      
 scale               1.0000     1.0000     1.0000     1.0000  
 ic                  0.         0.         0.         0.      
 m                   1.0000     1.0000     1.0000   254.0000  
 w                   0.         0.         0.         0.      
 l                   0.         0.         0.         0.      
 temp               25.0000    25.0000    25.0000    25.0000  
  
  
                                                              
 element name       11:c1      12:c2      12:c1      13:c2    
 node1               0:bl_b0    0:net24    0:net23    0:bl63  
 node2               0:0        0:0        0:0        0:0     
 model                                                        
 cap eff            22.3520f    5.6774p    5.6774p   22.3520f 
 tc1                 0.         0.         0.         0.      
 tc2                 0.         0.         0.         0.      
 scale               1.0000     1.0000     1.0000     1.0000  
 ic                  0.         0.         0.         0.      
 m                 254.0000    64.5160k   64.5160k  254.0000  
 w                   0.         0.         0.         0.      
 l                   0.         0.         0.         0.      
 temp               25.0000    25.0000    25.0000    25.0000  
  
  
                                                                
 element name       13:c1       14:c2      14:c1       14:c0    
 node1               0:bl_b63    0:bl63     0:bl_b63    0:wl0   
 node2               0:0         0:0        0:0         0:0     
 model                                                          
 cap eff            22.3520f    88.0000a   88.0000a   140.0000a 
 tc1                 0.          0.         0.          0.      
 tc2                 0.          0.         0.          0.      
 scale               1.0000      1.0000     1.0000      1.0000  
 ic                  0.          0.         0.          0.      
 m                 254.0000      1.0000     1.0000      1.0000  
 w                   0.          0.         0.          0.      
 l                   0.          0.         0.          0.      
 temp               25.0000     25.0000    25.0000     25.0000  
  
  
                                                              
 element name       15:c2      15:c1      15:c0      16:c2    
 node1               0:net24    0:net23    0:wl0      0:bl0   
 node2               0:0        0:0        0:0        0:0     
 model                                                        
 cap eff            22.3520f   22.3520f   35.5600f   88.0000a 
 tc1                 0.         0.         0.         0.      
 tc2                 0.         0.         0.         0.      
 scale               1.0000     1.0000     1.0000     1.0000  
 ic                  0.         0.         0.         0.      
 m                 254.0000   254.0000   254.0000     1.0000  
 w                   0.         0.         0.         0.      
 l                   0.         0.         0.         0.      
 temp               25.0000    25.0000    25.0000    25.0000  
  
  
                                        
 element name       16:c1      16:c0    
 node1               0:bl_b0    0:wl0   
 node2               0:0        0:0     
 model                                  
 cap eff            88.0000a  140.0000a 
 tc1                 0.         0.      
 tc2                 0.         0.      
 scale               1.0000     1.0000  
 ic                  0.         0.      
 m                   1.0000     1.0000  
 w                   0.         0.      
 l                   0.         0.      
 temp               25.0000    25.0000  


 **** voltage-controlled voltage sources
      name        +             -          dimension  function  scale
       31:e_0            31:net_3           0:0              1      poly       1.    
       32:e_0            32:net_3           0:0              1      poly       1.    
       33:e_0            33:net_3           0:0              1      poly       1.    


 **** current-controlled current sources
      name        +             -          dimension  function  multiplier
       31:f_0            31:net_4           0:0              1      poly       1.    
       31:f_1            31:net_4           0:0              1      poly       1.    
       32:f_0            32:net_4           0:0              1      poly       1.    
       32:f_1            32:net_4           0:0              1      poly       1.    
       33:f_0            33:net_4           0:0              1      poly       1.    
       33:f_1            33:net_4           0:0              1      poly       1.    


 **** independent sources

     name         node1        node2      dc volt    ac mag    ac phase    type
  v_supply  vdd               0                    1.0000     0.         0.      dc   
  v_supply1  vdd!              0                    1.0000     0.         0.      dc   
  vblpc_b  blpc_b            0                    1.0000     0.         0.      pulse
             initial value     1.0000 
             pulsed value.     0.     
             delay time...     0.     
             risetime.....    50.0000p
             falltime.....    50.0000p
             width........   450.0000p
             period.......     1.0000n

  vsae  sae               0                    0.         0.         0.      pulse
             initial value     0.     
             pulsed value.     1.0000 
             delay time...   725.0000p
             risetime.....    50.0000p
             falltime.....    50.0000p
             width........   450.0000p
             period.......     1.0000n

  vsapc_b  sapc_b            0                    1.0000     0.         0.      pulse
             initial value     1.0000 
             pulsed value.     0.     
             delay time...     0.     
             risetime.....    50.0000p
             falltime.....    50.0000p
             width........   450.0000p
             period.......     1.0000n

  vsel_b0  sel_b0            0                    1.0000     0.         0.      pulse
             initial value     1.0000 
             pulsed value.     0.     
             delay time...   500.0000p
             risetime.....    50.0000p
             falltime.....    50.0000p
             width........   450.0000p
             period.......     1.0000n

  vsel_b63  sel_b63           0                    1.0000     0.         0.      pulse
             initial value     1.0000 
             pulsed value.     0.     
             delay time...   500.0000p
             risetime.....    50.0000p
             falltime.....    50.0000p
             width........   450.0000p
             period.......     1.0000n

  vwrdata0  wrdata0           0                    0.         0.         0.      dc   
  vwrdata255  wrdata255         0                    0.         0.         0.      dc   
  vwren  wren              0                    0.         0.         0.      dc   
 xclk_gen.vsrc xclk_gen.src               0                    0.         0.         0.      pulse
             initial value     0.     
             pulsed value.     1.0000 
             delay time...   500.0000p
             risetime.....    50.0000p
             falltime.....    50.0000p
             width........   450.0000p
             period.......     1.0000n

 xa0_gen.vsrc xa0_gen.src               0                    0.         0.         0.      pulse
             initial value     0.     
             pulsed value.     1.0000 
             delay time...   375.0000p
             risetime.....    50.0000p
             falltime.....    50.0000p
             width........   950.0000p
             period.......     2.0000n

 xa255_gen.vsrc xa255_gen.src               0                    0.         0.         0.      pulse
             initial value     0.     
             pulsed value.     1.0000 
             delay time...     1.3750n
             risetime.....    50.0000p
             falltime.....    50.0000p
             width........   950.0000p
             period.......     2.0000n

 xclk_gen.xgen.v_monitor xclk_gen.xgen.net_4             0                    1.0000     0.         0.      dc   
 xclk_gen.xgen.v_sense xclk_gen.xgen.net_3             ck                   0.         0.         0.      dc   
 xa0_gen.xgen.v_monitor xa0_gen.xgen.net_4             0                    1.0000     0.         0.      dc   
 xa0_gen.xgen.v_sense xa0_gen.xgen.net_3             a0                   0.         0.         0.      dc   
 xa255_gen.xgen.v_monitor xa255_gen.xgen.net_4             0                    1.0000     0.         0.      dc   
 xa255_gen.xgen.v_sense xa255_gen.xgen.net_3             a255                 0.         0.         0.      dc   
 xclk_gen.xgen.x_0.x_0.vstimulus_supply xclk_gen.xgen.x_0.x_0.vdd_stimulus      0                    1.0000     0.         0.      dc   
 xclk_gen.xgen.x_0.x_1.vstimulus_supply xclk_gen.xgen.x_0.x_1.vdd_stimulus      0                    1.0000     0.         0.      dc   
 xclk_gen.xgen.x_0.x_2.vstimulus_supply xclk_gen.xgen.x_0.x_2.vdd_stimulus      0                    1.0000     0.         0.      dc   
 xclk_gen.xgen.x_0.x_3.vstimulus_supply xclk_gen.xgen.x_0.x_3.vdd_stimulus      0                    1.0000     0.         0.      dc   
 xa0_gen.xgen.x_0.x_0.vstimulus_supply xa0_gen.xgen.x_0.x_0.vdd_stimulus      0                    1.0000     0.         0.      dc   
 xa0_gen.xgen.x_0.x_1.vstimulus_supply xa0_gen.xgen.x_0.x_1.vdd_stimulus      0                    1.0000     0.         0.      dc   
 xa0_gen.xgen.x_0.x_2.vstimulus_supply xa0_gen.xgen.x_0.x_2.vdd_stimulus      0                    1.0000     0.         0.      dc   
 xa0_gen.xgen.x_0.x_3.vstimulus_supply xa0_gen.xgen.x_0.x_3.vdd_stimulus      0                    1.0000     0.         0.      dc   
 xa255_gen.xgen.x_0.x_0.vstimulus_supply xa255_gen.xgen.x_0.x_0.vdd_stimulus      0                    1.0000     0.         0.      dc   
 xa255_gen.xgen.x_0.x_1.vstimulus_supply xa255_gen.xgen.x_0.x_1.vdd_stimulus      0                    1.0000     0.         0.      dc   
 xa255_gen.xgen.x_0.x_2.vstimulus_supply xa255_gen.xgen.x_0.x_2.vdd_stimulus      0                    1.0000     0.         0.      dc   
 xa255_gen.xgen.x_0.x_3.vstimulus_supply xa255_gen.xgen.x_0.x_3.vdd_stimulus      0                    1.0000     0.         0.      dc   


 **** mosfets


 **** BSIM4 Model (Level 54)
  
  
                                                                
 element name        3:m4       3:m3       3:meq       3:mpc2   
 drain               3:sbl_b    0:vdd!     3:sbl       0:vdd!   
 gate                3:sbl      3:sbl_b    0:sapc_b    0:sapc_b 
 source              0:vdd!     3:sbl      3:sbl_b     3:sbl_b  
 bulk                0:vdd!     0:vdd!     0:vdd!      0:vdd!   
 model               0:pmos     0:pmos     0:pmos      0:pmos   
 w eff              78.0000n   78.0000n  166.0000n   166.0000n  
 l eff              29.0000n   29.0000n   29.0000n    29.0000n  
 rd eff              0.         0.         0.          0.       
 rs eff              0.         0.         0.          0.       
 cdsat               7.8700a    7.8700a   15.1073a    15.1073a  
 cssat               7.8700a    7.8700a   15.1073a    15.1073a  
 capbd             133.6681a  133.6681a  223.4243a   223.4243a  
 capbs             116.1033a  116.1033a  188.2947a   188.2947a  
 temp               25.0000    25.0000    25.0000     25.0000   
 aic                                                            
 nf                  1.0000     1.0000     1.0000      1.0000   
 min                 0.         0.         0.          0.       
 rbdb               15.0000    15.0000    15.0000     15.0000   
 rbsb               15.0000    15.0000    15.0000     15.0000   
 rbpb                5.0000     5.0000     5.0000      5.0000   
 rbps               15.0000    15.0000    15.0000     15.0000   
 rbpd               15.0000    15.0000    15.0000     15.0000   
 trnqsmod            0.         0.         0.          0.       
 acnqsmod            0.         0.         0.          0.       
 rbodymod            1.0000     1.0000     1.0000      1.0000   
 rgatemod            1.0000     1.0000     1.0000      1.0000   
 geomod              0.         0.         0.          0.       
 rgeomod             0.         0.         0.          0.       
 delvto              0.         0.         0.          0.       
 mulu0               1.0000     1.0000     1.0000      1.0000   
 delk1               0.         0.         0.          0.       
 delnfct             0.         0.         0.          0.       
 deltox              0.         0.         0.          0.       
 sa                  0.         0.         0.          0.       
 sb                  0.         0.         0.          0.       
 sd                  0.         0.         0.          0.       
 saeff               0.         0.         0.          0.       
 sbeff               0.         0.         0.          0.       
  
  
                                                                 
 element name        3:mpc       3:miso_b    3:miso     3:mmx4_b 
 drain               3:sbl       3:sbl_b     3:sbl      3:cmbl_b 
 gate                0:sapc_b    0:sae       0:sae      0:vdd!   
 source              0:vdd!      3:cmbl_b    3:cmbl     0:vdd!   
 bulk                0:vdd!      0:vdd!      0:vdd!     0:vdd!   
 model               0:pmos      0:pmos      0:pmos     0:pmos   
 w eff             166.0000n   254.0000n   254.0000n  518.0000n  
 l eff              29.0000n    29.0000n    29.0000n   29.0000n  
 rd eff              0.          0.          0.         0.       
 rs eff              0.          0.          0.         0.       
 cdsat              15.1073a    22.3447a    22.3447a   44.0567a  
 cssat              15.1073a    22.3447a    22.3447a   44.0567a  
 capbd             223.4243a   313.1804a   313.1804a  582.4488a  
 capbs             188.2947a   260.4860a   260.4860a  477.0600a  
 temp               25.0000     25.0000     25.0000    25.0000   
 aic                                                             
 nf                  1.0000      1.0000      1.0000     1.0000   
 min                 0.          0.          0.         0.       
 rbdb               15.0000     15.0000     15.0000    15.0000   
 rbsb               15.0000     15.0000     15.0000    15.0000   
 rbpb                5.0000      5.0000      5.0000     5.0000   
 rbps               15.0000     15.0000     15.0000    15.0000   
 rbpd               15.0000     15.0000     15.0000    15.0000   
 trnqsmod            0.          0.          0.         0.       
 acnqsmod            0.          0.          0.         0.       
 rbodymod            1.0000      1.0000      1.0000     1.0000   
 rgatemod            1.0000      1.0000      1.0000     1.0000   
 geomod              0.          0.          0.         0.       
 rgeomod             0.          0.          0.         0.       
 delvto              0.          0.          0.         0.       
 mulu0               1.0000      1.0000      1.0000     1.0000   
 delk1               0.          0.          0.         0.       
 delnfct             0.          0.          0.         0.       
 deltox              0.          0.          0.         0.       
 sa                  0.          0.          0.         0.       
 sb                  0.          0.          0.         0.       
 sd                  0.          0.          0.         0.       
 saeff               0.          0.          0.         0.       
 sbeff               0.          0.          0.         0.       
  
  
                                                                
 element name        3:mmx4     3:mmx3_b    3:mmx3     3:mmx2_b 
 drain               3:cmbl     3:cmbl_b    3:cmbl     3:cmbl_b 
 gate                0:vdd!     0:vdd!      0:vdd!     0:vdd!   
 source              0:vdd!     0:vdd!      0:vdd!     0:vdd!   
 bulk                0:vdd!     0:vdd!      0:vdd!     0:vdd!   
 model               0:pmos     0:pmos      0:pmos     0:pmos   
 w eff             518.0000n  518.0000n   518.0000n  518.0000n  
 l eff              29.0000n   29.0000n    29.0000n   29.0000n  
 rd eff              0.         0.          0.         0.       
 rs eff              0.         0.          0.         0.       
 cdsat              44.0567a   44.0567a    44.0567a   44.0567a  
 cssat              44.0567a   44.0567a    44.0567a   44.0567a  
 capbd             582.4488a  582.4488a   582.4488a  582.4488a  
 capbs             477.0600a  477.0600a   477.0600a  477.0600a  
 temp               25.0000    25.0000     25.0000    25.0000   
 aic                                                            
 nf                  1.0000     1.0000      1.0000     1.0000   
 min                 0.         0.          0.         0.       
 rbdb               15.0000    15.0000     15.0000    15.0000   
 rbsb               15.0000    15.0000     15.0000    15.0000   
 rbpb                5.0000     5.0000      5.0000     5.0000   
 rbps               15.0000    15.0000     15.0000    15.0000   
 rbpd               15.0000    15.0000     15.0000    15.0000   
 trnqsmod            0.         0.          0.         0.       
 acnqsmod            0.         0.          0.         0.       
 rbodymod            1.0000     1.0000      1.0000     1.0000   
 rgatemod            1.0000     1.0000      1.0000     1.0000   
 geomod              0.         0.          0.         0.       
 rgeomod             0.         0.          0.         0.       
 delvto              0.         0.          0.         0.       
 mulu0               1.0000     1.0000      1.0000     1.0000   
 delk1               0.         0.          0.         0.       
 delnfct             0.         0.          0.         0.       
 deltox              0.         0.          0.         0.       
 sa                  0.         0.          0.         0.       
 sb                  0.         0.          0.         0.       
 sd                  0.         0.          0.         0.       
 saeff               0.         0.          0.         0.       
 sbeff               0.         0.          0.         0.       
  
  
                                                                  
 element name        3:mmx2     3:mmx_b      3:mmx        3:mtail 
 drain               3:cmbl     3:cmbl_b     3:cmbl       3:tail  
 gate                0:vdd!     0:sel_b63    0:sel_b63    0:sae   
 source              0:vdd!     0:bl_b63     0:bl63       0:0     
 bulk                0:vdd!     0:vdd!       0:vdd!       0:0     
 model               0:pmos     0:pmos       0:pmos       0:nmos  
 w eff             518.0000n  518.0000n    518.0000n    166.0000n 
 l eff              29.0000n   29.0000n     29.0000n     29.0000n 
 rd eff              0.         0.           0.           0.      
 rs eff              0.         0.           0.           0.      
 cdsat              44.0567a   44.0567a     44.0567a     15.1073a 
 cssat              44.0567a   44.0567a     44.0567a     15.1073a 
 capbd             582.4488a  582.4488a    582.4488a    223.4243a 
 capbs             477.0600a  477.0600a    477.0600a    188.2947a 
 temp               25.0000    25.0000      25.0000      25.0000  
 aic                                                              
 nf                  1.0000     1.0000       1.0000       1.0000  
 min                 0.         0.           0.           0.      
 rbdb               15.0000    15.0000      15.0000      15.0000  
 rbsb               15.0000    15.0000      15.0000      15.0000  
 rbpb                5.0000     5.0000       5.0000       5.0000  
 rbps               15.0000    15.0000      15.0000      15.0000  
 rbpd               15.0000    15.0000      15.0000      15.0000  
 trnqsmod            0.         0.           0.           0.      
 acnqsmod            0.         0.           0.           0.      
 rbodymod            1.0000     1.0000       1.0000       1.0000  
 rgatemod            1.0000     1.0000       1.0000       1.0000  
 geomod              0.         0.           0.           0.      
 rgeomod             0.         0.           0.           0.      
 delvto              0.         0.           0.           0.      
 mulu0               1.0000     1.0000       1.0000       1.0000  
 delk1               0.         0.           0.           0.      
 delnfct             0.         0.           0.           0.      
 deltox              0.         0.           0.           0.      
 sa                  0.         0.           0.           0.      
 sb                  0.         0.           0.           0.      
 sd                  0.         0.           0.           0.      
 saeff               0.         0.           0.           0.      
 sbeff               0.         0.           0.           0.      
  
  
                                                              
 element name        3:m1       3:m2       4:m4       4:m3    
 drain               3:tail     3:sbl_b    4:sbl_b    0:vdd!  
 gate                3:sbl_b    3:sbl      4:sbl      4:sbl_b 
 source              3:sbl      3:tail     0:vdd!     4:sbl   
 bulk                0:0        0:0        0:vdd!     0:vdd!  
 model               0:nmos     0:nmos     0:pmos     0:pmos  
 w eff             122.0000n  122.0000n   78.0000n   78.0000n 
 l eff              29.0000n   29.0000n   29.0000n   29.0000n 
 rd eff              0.         0.         0.         0.      
 rs eff              0.         0.         0.         0.      
 cdsat              11.4887a   11.4887a    7.8700a    7.8700a 
 cssat              11.4887a   11.4887a    7.8700a    7.8700a 
 capbd             178.5462a  178.5462a  133.6681a  133.6681a 
 capbs             152.1990a  152.1990a  116.1033a  116.1033a 
 temp               25.0000    25.0000    25.0000    25.0000  
 aic                                                          
 nf                  1.0000     1.0000     1.0000     1.0000  
 min                 0.         0.         0.         0.      
 rbdb               15.0000    15.0000    15.0000    15.0000  
 rbsb               15.0000    15.0000    15.0000    15.0000  
 rbpb                5.0000     5.0000     5.0000     5.0000  
 rbps               15.0000    15.0000    15.0000    15.0000  
 rbpd               15.0000    15.0000    15.0000    15.0000  
 trnqsmod            0.         0.         0.         0.      
 acnqsmod            0.         0.         0.         0.      
 rbodymod            1.0000     1.0000     1.0000     1.0000  
 rgatemod            1.0000     1.0000     1.0000     1.0000  
 geomod              0.         0.         0.         0.      
 rgeomod             0.         0.         0.         0.      
 delvto              0.         0.         0.         0.      
 mulu0               1.0000     1.0000     1.0000     1.0000  
 delk1               0.         0.         0.         0.      
 delnfct             0.         0.         0.         0.      
 deltox              0.         0.         0.         0.      
 sa                  0.         0.         0.         0.      
 sb                  0.         0.         0.         0.      
 sd                  0.         0.         0.         0.      
 saeff               0.         0.         0.         0.      
 sbeff               0.         0.         0.         0.      
  
  
                                                                  
 element name        4:meq       4:mpc2      4:mpc       4:miso_b 
 drain               4:sbl       0:vdd!      4:sbl       4:sbl_b  
 gate                0:sapc_b    0:sapc_b    0:sapc_b    0:sae    
 source              4:sbl_b     4:sbl_b     0:vdd!      4:cmbl_b 
 bulk                0:vdd!      0:vdd!      0:vdd!      0:vdd!   
 model               0:pmos      0:pmos      0:pmos      0:pmos   
 w eff             166.0000n   166.0000n   166.0000n   254.0000n  
 l eff              29.0000n    29.0000n    29.0000n    29.0000n  
 rd eff              0.          0.          0.          0.       
 rs eff              0.          0.          0.          0.       
 cdsat              15.1073a    15.1073a    15.1073a    22.3447a  
 cssat              15.1073a    15.1073a    15.1073a    22.3447a  
 capbd             223.4243a   223.4243a   223.4243a   313.1804a  
 capbs             188.2947a   188.2947a   188.2947a   260.4860a  
 temp               25.0000     25.0000     25.0000     25.0000   
 aic                                                              
 nf                  1.0000      1.0000      1.0000      1.0000   
 min                 0.          0.          0.          0.       
 rbdb               15.0000     15.0000     15.0000     15.0000   
 rbsb               15.0000     15.0000     15.0000     15.0000   
 rbpb                5.0000      5.0000      5.0000      5.0000   
 rbps               15.0000     15.0000     15.0000     15.0000   
 rbpd               15.0000     15.0000     15.0000     15.0000   
 trnqsmod            0.          0.          0.          0.       
 acnqsmod            0.          0.          0.          0.       
 rbodymod            1.0000      1.0000      1.0000      1.0000   
 rgatemod            1.0000      1.0000      1.0000      1.0000   
 geomod              0.          0.          0.          0.       
 rgeomod             0.          0.          0.          0.       
 delvto              0.          0.          0.          0.       
 mulu0               1.0000      1.0000      1.0000      1.0000   
 delk1               0.          0.          0.          0.       
 delnfct             0.          0.          0.          0.       
 deltox              0.          0.          0.          0.       
 sa                  0.          0.          0.          0.       
 sb                  0.          0.          0.          0.       
 sd                  0.          0.          0.          0.       
 saeff               0.          0.          0.          0.       
 sbeff               0.          0.          0.          0.       
  
  
                                                                
 element name        4:miso     4:mmx4_b    4:mmx4     4:mmx3_b 
 drain               4:sbl      4:cmbl_b    4:cmbl     4:cmbl_b 
 gate                0:sae      0:vdd!      0:vdd!     0:vdd!   
 source              4:cmbl     0:vdd!      0:vdd!     0:vdd!   
 bulk                0:vdd!     0:vdd!      0:vdd!     0:vdd!   
 model               0:pmos     0:pmos      0:pmos     0:pmos   
 w eff             254.0000n  518.0000n   518.0000n  518.0000n  
 l eff              29.0000n   29.0000n    29.0000n   29.0000n  
 rd eff              0.         0.          0.         0.       
 rs eff              0.         0.          0.         0.       
 cdsat              22.3447a   44.0567a    44.0567a   44.0567a  
 cssat              22.3447a   44.0567a    44.0567a   44.0567a  
 capbd             313.1804a  582.4488a   582.4488a  582.4488a  
 capbs             260.4860a  477.0600a   477.0600a  477.0600a  
 temp               25.0000    25.0000     25.0000    25.0000   
 aic                                                            
 nf                  1.0000     1.0000      1.0000     1.0000   
 min                 0.         0.          0.         0.       
 rbdb               15.0000    15.0000     15.0000    15.0000   
 rbsb               15.0000    15.0000     15.0000    15.0000   
 rbpb                5.0000     5.0000      5.0000     5.0000   
 rbps               15.0000    15.0000     15.0000    15.0000   
 rbpd               15.0000    15.0000     15.0000    15.0000   
 trnqsmod            0.         0.          0.         0.       
 acnqsmod            0.         0.          0.         0.       
 rbodymod            1.0000     1.0000      1.0000     1.0000   
 rgatemod            1.0000     1.0000      1.0000     1.0000   
 geomod              0.         0.          0.         0.       
 rgeomod             0.         0.          0.         0.       
 delvto              0.         0.          0.         0.       
 mulu0               1.0000     1.0000      1.0000     1.0000   
 delk1               0.         0.          0.         0.       
 delnfct             0.         0.          0.         0.       
 deltox              0.         0.          0.         0.       
 sa                  0.         0.          0.         0.       
 sb                  0.         0.          0.         0.       
 sd                  0.         0.          0.         0.       
 saeff               0.         0.          0.         0.       
 sbeff               0.         0.          0.         0.       
  
  
                                                                
 element name        4:mmx3     4:mmx2_b    4:mmx2     4:mmx_b  
 drain               4:cmbl     4:cmbl_b    4:cmbl     4:cmbl_b 
 gate                0:vdd!     0:vdd!      0:vdd!     0:sel_b0 
 source              0:vdd!     0:vdd!      0:vdd!     0:bl_b0  
 bulk                0:vdd!     0:vdd!      0:vdd!     0:vdd!   
 model               0:pmos     0:pmos      0:pmos     0:pmos   
 w eff             518.0000n  518.0000n   518.0000n  518.0000n  
 l eff              29.0000n   29.0000n    29.0000n   29.0000n  
 rd eff              0.         0.          0.         0.       
 rs eff              0.         0.          0.         0.       
 cdsat              44.0567a   44.0567a    44.0567a   44.0567a  
 cssat              44.0567a   44.0567a    44.0567a   44.0567a  
 capbd             582.4488a  582.4488a   582.4488a  582.4488a  
 capbs             477.0600a  477.0600a   477.0600a  477.0600a  
 temp               25.0000    25.0000     25.0000    25.0000   
 aic                                                            
 nf                  1.0000     1.0000      1.0000     1.0000   
 min                 0.         0.          0.         0.       
 rbdb               15.0000    15.0000     15.0000    15.0000   
 rbsb               15.0000    15.0000     15.0000    15.0000   
 rbpb                5.0000     5.0000      5.0000     5.0000   
 rbps               15.0000    15.0000     15.0000    15.0000   
 rbpd               15.0000    15.0000     15.0000    15.0000   
 trnqsmod            0.         0.          0.         0.       
 acnqsmod            0.         0.          0.         0.       
 rbodymod            1.0000     1.0000      1.0000     1.0000   
 rgatemod            1.0000     1.0000      1.0000     1.0000   
 geomod              0.         0.          0.         0.       
 rgeomod             0.         0.          0.         0.       
 delvto              0.         0.          0.         0.       
 mulu0               1.0000     1.0000      1.0000     1.0000   
 delk1               0.         0.          0.         0.       
 delnfct             0.         0.          0.         0.       
 deltox              0.         0.          0.         0.       
 sa                  0.         0.          0.         0.       
 sb                  0.         0.          0.         0.       
 sd                  0.         0.          0.         0.       
 saeff               0.         0.          0.         0.       
 sbeff               0.         0.          0.         0.       
  
  
                                                               
 element name        4:mmx       4:mtail    4:m1       4:m2    
 drain               4:cmbl      4:tail     4:tail     4:sbl_b 
 gate                0:sel_b0    0:sae      4:sbl_b    4:sbl   
 source              0:bl0       0:0        4:sbl      4:tail  
 bulk                0:vdd!      0:0        0:0        0:0     
 model               0:pmos      0:nmos     0:nmos     0:nmos  
 w eff             518.0000n   166.0000n  122.0000n  122.0000n 
 l eff              29.0000n    29.0000n   29.0000n   29.0000n 
 rd eff              0.          0.         0.         0.      
 rs eff              0.          0.         0.         0.      
 cdsat              44.0567a    15.1073a   11.4887a   11.4887a 
 cssat              44.0567a    15.1073a   11.4887a   11.4887a 
 capbd             582.4488a   223.4243a  178.5462a  178.5462a 
 capbs             477.0600a   188.2947a  152.1990a  152.1990a 
 temp               25.0000     25.0000    25.0000    25.0000  
 aic                                                           
 nf                  1.0000      1.0000     1.0000     1.0000  
 min                 0.          0.         0.         0.      
 rbdb               15.0000     15.0000    15.0000    15.0000  
 rbsb               15.0000     15.0000    15.0000    15.0000  
 rbpb                5.0000      5.0000     5.0000     5.0000  
 rbps               15.0000     15.0000    15.0000    15.0000  
 rbpd               15.0000     15.0000    15.0000    15.0000  
 trnqsmod            0.          0.         0.         0.      
 acnqsmod            0.          0.         0.         0.      
 rbodymod            1.0000      1.0000     1.0000     1.0000  
 rgatemod            1.0000      1.0000     1.0000     1.0000  
 geomod              0.          0.         0.         0.      
 rgeomod             0.          0.         0.         0.      
 delvto              0.          0.         0.         0.      
 mulu0               1.0000      1.0000     1.0000     1.0000  
 delk1               0.          0.         0.         0.      
 delnfct             0.          0.         0.         0.      
 deltox              0.          0.         0.         0.      
 sa                  0.          0.         0.         0.      
 sb                  0.          0.         0.         0.      
 sd                  0.          0.         0.         0.      
 saeff               0.          0.         0.         0.      
 sbeff               0.          0.         0.         0.      
  
  
                                                               
 element name        8:m5       8:m4       8:m1        8:m0    
 drain               8:bit      8:bit_b    0:bl_b63    0:bl63  
 gate                8:bit_b    8:bit      0:wl255     0:wl255 
 source              0:0        0:0        8:bit_b     8:bit   
 bulk                0:0        0:0        0:0         0:0     
 model               0:nmos     0:nmos     0:nmos      0:nmos  
 w eff             122.0000n  122.0000n   78.0000n    78.0000n 
 l eff              29.0000n   29.0000n   29.0000n    29.0000n 
 rd eff              0.         0.         0.          0.      
 rs eff              0.         0.         0.          0.      
 cdsat              11.4887a   11.4887a    7.8700a     7.8700a 
 cssat              11.4887a   11.4887a    7.8700a     7.8700a 
 capbd             178.5462a  178.5462a  133.6681a   133.6681a 
 capbs             152.1990a  152.1990a  116.1033a   116.1033a 
 temp               25.0000    25.0000    25.0000     25.0000  
 aic                                                           
 nf                  1.0000     1.0000     1.0000      1.0000  
 min                 0.         0.         0.          0.      
 rbdb               15.0000    15.0000    15.0000     15.0000  
 rbsb               15.0000    15.0000    15.0000     15.0000  
 rbpb                5.0000     5.0000     5.0000      5.0000  
 rbps               15.0000    15.0000    15.0000     15.0000  
 rbpd               15.0000    15.0000    15.0000     15.0000  
 trnqsmod            0.         0.         0.          0.      
 acnqsmod            0.         0.         0.          0.      
 rbodymod            1.0000     1.0000     1.0000      1.0000  
 rgatemod            1.0000     1.0000     1.0000      1.0000  
 geomod              0.         0.         0.          0.      
 rgeomod             0.         0.         0.          0.      
 delvto              0.         0.         0.          0.      
 mulu0               1.0000     1.0000     1.0000      1.0000  
 delk1               0.         0.         0.          0.      
 delnfct             0.         0.         0.          0.      
 deltox              0.         0.         0.          0.      
 sa                  0.         0.         0.          0.      
 sb                  0.         0.         0.          0.      
 sd                  0.         0.         0.          0.      
 saeff               0.         0.         0.          0.      
 sbeff               0.         0.         0.          0.      
  
  
                                                              
 element name        8:m2       8:m3       9:m5       9:m4    
 drain               8:bit_b    8:bit      9:bit      9:bit_b 
 gate                8:bit      8:bit_b    9:bit_b    9:bit   
 source              0:vdd!     0:vdd!     0:0        0:0     
 bulk                0:vdd!     0:vdd!     0:0        0:0     
 model               0:pmos     0:pmos     0:nmos     0:nmos  
 w eff              78.0000n   78.0000n   30.9880u   30.9880u 
 l eff              29.0000n   29.0000n   29.0000n   29.0000n 
 rd eff              0.         0.         0.         0.      
 rs eff              0.         0.         0.         0.      
 cdsat               7.8700a    7.8700a    2.9181f    2.9181f 
 cssat               7.8700a    7.8700a    2.9181f    2.9181f 
 capbd             133.6681a  133.6681a  178.5462a  178.5462a 
 capbs             116.1033a  116.1033a  152.1990a  152.1990a 
 temp               25.0000    25.0000    25.0000    25.0000  
 aic                                                          
 nf                  1.0000     1.0000     1.0000     1.0000  
 min                 0.         0.         0.         0.      
 rbdb               15.0000    15.0000    15.0000    15.0000  
 rbsb               15.0000    15.0000    15.0000    15.0000  
 rbpb                5.0000     5.0000     5.0000     5.0000  
 rbps               15.0000    15.0000    15.0000    15.0000  
 rbpd               15.0000    15.0000    15.0000    15.0000  
 trnqsmod            0.         0.         0.         0.      
 acnqsmod            0.         0.         0.         0.      
 rbodymod            1.0000     1.0000     1.0000     1.0000  
 rgatemod            1.0000     1.0000     1.0000     1.0000  
 geomod              0.         0.         0.         0.      
 rgeomod             0.         0.         0.         0.      
 delvto              0.         0.         0.         0.      
 mulu0               1.0000     1.0000     1.0000     1.0000  
 delk1               0.         0.         0.         0.      
 delnfct             0.         0.         0.         0.      
 deltox              0.         0.         0.         0.      
 sa                  0.         0.         0.         0.      
 sb                  0.         0.         0.         0.      
 sd                  0.         0.         0.         0.      
 saeff               0.         0.         0.         0.      
 sbeff               0.         0.         0.         0.      
  
  
                                                              
 element name        9:m1       9:m0       9:m2       9:m3    
 drain               0:net23    0:net24    9:bit_b    9:bit   
 gate                0:wl255    0:wl255    9:bit      9:bit_b 
 source              9:bit_b    9:bit      0:vdd!     0:vdd!  
 bulk                0:0        0:0        0:vdd!     0:vdd!  
 model               0:nmos     0:nmos     0:pmos     0:pmos  
 w eff              19.8120u   19.8120u   19.8120u   19.8120u 
 l eff              29.0000n   29.0000n   29.0000n   29.0000n 
 rd eff              0.         0.         0.         0.      
 rs eff              0.         0.         0.         0.      
 cdsat               1.9990f    1.9990f    1.9990f    1.9990f 
 cssat               1.9990f    1.9990f    1.9990f    1.9990f 
 capbd             133.6681a  133.6681a  133.6681a  133.6681a 
 capbs             116.1033a  116.1033a  116.1033a  116.1033a 
 temp               25.0000    25.0000    25.0000    25.0000  
 aic                                                          
 nf                  1.0000     1.0000     1.0000     1.0000  
 min                 0.         0.         0.         0.      
 rbdb               15.0000    15.0000    15.0000    15.0000  
 rbsb               15.0000    15.0000    15.0000    15.0000  
 rbpb                5.0000     5.0000     5.0000     5.0000  
 rbps               15.0000    15.0000    15.0000    15.0000  
 rbpd               15.0000    15.0000    15.0000    15.0000  
 trnqsmod            0.         0.         0.         0.      
 acnqsmod            0.         0.         0.         0.      
 rbodymod            1.0000     1.0000     1.0000     1.0000  
 rgatemod            1.0000     1.0000     1.0000     1.0000  
 geomod              0.         0.         0.         0.      
 rgeomod             0.         0.         0.         0.      
 delvto              0.         0.         0.         0.      
 mulu0               1.0000     1.0000     1.0000     1.0000  
 delk1               0.         0.         0.         0.      
 delnfct             0.         0.         0.         0.      
 deltox              0.         0.         0.         0.      
 sa                  0.         0.         0.         0.      
 sb                  0.         0.         0.         0.      
 sd                  0.         0.         0.         0.      
 saeff               0.         0.         0.         0.      
 sbeff               0.         0.         0.         0.      
  
  
                                                              
 element name       10:m5      10:m4      10:m1      10:m0    
 drain              10:bit     10:bit_b    0:bl_b0    0:bl0   
 gate               10:bit_b   10:bit      0:wl255    0:wl255 
 source              0:0        0:0       10:bit_b   10:bit   
 bulk                0:0        0:0        0:0        0:0     
 model               0:nmos     0:nmos     0:nmos     0:nmos  
 w eff             122.0000n  122.0000n   78.0000n   78.0000n 
 l eff              29.0000n   29.0000n   29.0000n   29.0000n 
 rd eff              0.         0.         0.         0.      
 rs eff              0.         0.         0.         0.      
 cdsat              11.4887a   11.4887a    7.8700a    7.8700a 
 cssat              11.4887a   11.4887a    7.8700a    7.8700a 
 capbd             178.5462a  178.5462a  133.6681a  133.6681a 
 capbs             152.1990a  152.1990a  116.1033a  116.1033a 
 temp               25.0000    25.0000    25.0000    25.0000  
 aic                                                          
 nf                  1.0000     1.0000     1.0000     1.0000  
 min                 0.         0.         0.         0.      
 rbdb               15.0000    15.0000    15.0000    15.0000  
 rbsb               15.0000    15.0000    15.0000    15.0000  
 rbpb                5.0000     5.0000     5.0000     5.0000  
 rbps               15.0000    15.0000    15.0000    15.0000  
 rbpd               15.0000    15.0000    15.0000    15.0000  
 trnqsmod            0.         0.         0.         0.      
 acnqsmod            0.         0.         0.         0.      
 rbodymod            1.0000     1.0000     1.0000     1.0000  
 rgatemod            1.0000     1.0000     1.0000     1.0000  
 geomod              0.         0.         0.         0.      
 rgeomod             0.         0.         0.         0.      
 delvto              0.         0.         0.         0.      
 mulu0               1.0000     1.0000     1.0000     1.0000  
 delk1               0.         0.         0.         0.      
 delnfct             0.         0.         0.         0.      
 deltox              0.         0.         0.         0.      
 sa                  0.         0.         0.         0.      
 sb                  0.         0.         0.         0.      
 sd                  0.         0.         0.         0.      
 saeff               0.         0.         0.         0.      
 sbeff               0.         0.         0.         0.      
  
  
                                                              
 element name       10:m2      10:m3      11:m5      11:m4    
 drain              10:bit_b   10:bit     11:bit     11:bit_b 
 gate               10:bit     10:bit_b   11:bit_b   11:bit   
 source              0:vdd!     0:vdd!     0:0        0:0     
 bulk                0:vdd!     0:vdd!     0:0        0:0     
 model               0:pmos     0:pmos     0:nmos     0:nmos  
 w eff              78.0000n   78.0000n   30.9880u   30.9880u 
 l eff              29.0000n   29.0000n   29.0000n   29.0000n 
 rd eff              0.         0.         0.         0.      
 rs eff              0.         0.         0.         0.      
 cdsat               7.8700a    7.8700a    2.9181f    2.9181f 
 cssat               7.8700a    7.8700a    2.9181f    2.9181f 
 capbd             133.6681a  133.6681a  178.5462a  178.5462a 
 capbs             116.1033a  116.1033a  152.1990a  152.1990a 
 temp               25.0000    25.0000    25.0000    25.0000  
 aic                                                          
 nf                  1.0000     1.0000     1.0000     1.0000  
 min                 0.         0.         0.         0.      
 rbdb               15.0000    15.0000    15.0000    15.0000  
 rbsb               15.0000    15.0000    15.0000    15.0000  
 rbpb                5.0000     5.0000     5.0000     5.0000  
 rbps               15.0000    15.0000    15.0000    15.0000  
 rbpd               15.0000    15.0000    15.0000    15.0000  
 trnqsmod            0.         0.         0.         0.      
 acnqsmod            0.         0.         0.         0.      
 rbodymod            1.0000     1.0000     1.0000     1.0000  
 rgatemod            1.0000     1.0000     1.0000     1.0000  
 geomod              0.         0.         0.         0.      
 rgeomod             0.         0.         0.         0.      
 delvto              0.         0.         0.         0.      
 mulu0               1.0000     1.0000     1.0000     1.0000  
 delk1               0.         0.         0.         0.      
 delnfct             0.         0.         0.         0.      
 deltox              0.         0.         0.         0.      
 sa                  0.         0.         0.         0.      
 sb                  0.         0.         0.         0.      
 sd                  0.         0.         0.         0.      
 saeff               0.         0.         0.         0.      
 sbeff               0.         0.         0.         0.      
  
  
                                                              
 element name       11:m1      11:m0      11:m2      11:m3    
 drain               0:bl_b0    0:bl0     11:bit_b   11:bit   
 gate                0:0        0:0       11:bit     11:bit_b 
 source             11:bit_b   11:bit      0:vdd!     0:vdd!  
 bulk                0:0        0:0        0:vdd!     0:vdd!  
 model               0:nmos     0:nmos     0:pmos     0:pmos  
 w eff              19.8120u   19.8120u   19.8120u   19.8120u 
 l eff              29.0000n   29.0000n   29.0000n   29.0000n 
 rd eff              0.         0.         0.         0.      
 rs eff              0.         0.         0.         0.      
 cdsat               1.9990f    1.9990f    1.9990f    1.9990f 
 cssat               1.9990f    1.9990f    1.9990f    1.9990f 
 capbd             133.6681a  133.6681a  133.6681a  133.6681a 
 capbs             116.1033a  116.1033a  116.1033a  116.1033a 
 temp               25.0000    25.0000    25.0000    25.0000  
 aic                                                          
 nf                  1.0000     1.0000     1.0000     1.0000  
 min                 0.         0.         0.         0.      
 rbdb               15.0000    15.0000    15.0000    15.0000  
 rbsb               15.0000    15.0000    15.0000    15.0000  
 rbpb                5.0000     5.0000     5.0000     5.0000  
 rbps               15.0000    15.0000    15.0000    15.0000  
 rbpd               15.0000    15.0000    15.0000    15.0000  
 trnqsmod            0.         0.         0.         0.      
 acnqsmod            0.         0.         0.         0.      
 rbodymod            1.0000     1.0000     1.0000     1.0000  
 rgatemod            1.0000     1.0000     1.0000     1.0000  
 geomod              0.         0.         0.         0.      
 rgeomod             0.         0.         0.         0.      
 delvto              0.         0.         0.         0.      
 mulu0               1.0000     1.0000     1.0000     1.0000  
 delk1               0.         0.         0.         0.      
 delnfct             0.         0.         0.         0.      
 deltox              0.         0.         0.         0.      
 sa                  0.         0.         0.         0.      
 sb                  0.         0.         0.         0.      
 sd                  0.         0.         0.         0.      
 saeff               0.         0.         0.         0.      
 sbeff               0.         0.         0.         0.      
  
  
                                                              
 element name       12:m5      12:m4      12:m1      12:m0    
 drain              12:bit     12:bit_b    0:net23    0:net24 
 gate               12:bit_b   12:bit      0:0        0:0     
 source              0:0        0:0       12:bit_b   12:bit   
 bulk                0:0        0:0        0:0        0:0     
 model               0:nmos     0:nmos     0:nmos     0:nmos  
 w eff               7.8710m    7.8710m    5.0322m    5.0322m 
 l eff              29.0000n   29.0000n   29.0000n   29.0000n 
 rd eff              0.         0.         0.         0.      
 rs eff              0.         0.         0.         0.      
 cdsat             741.2026f  741.2026f  507.7401f  507.7401f 
 cssat             741.2026f  741.2026f  507.7401f  507.7401f 
 capbd             178.5462a  178.5462a  133.6681a  133.6681a 
 capbs             152.1990a  152.1990a  116.1033a  116.1033a 
 temp               25.0000    25.0000    25.0000    25.0000  
 aic                                                          
 nf                  1.0000     1.0000     1.0000     1.0000  
 min                 0.         0.         0.         0.      
 rbdb               15.0000    15.0000    15.0000    15.0000  
 rbsb               15.0000    15.0000    15.0000    15.0000  
 rbpb                5.0000     5.0000     5.0000     5.0000  
 rbps               15.0000    15.0000    15.0000    15.0000  
 rbpd               15.0000    15.0000    15.0000    15.0000  
 trnqsmod            0.         0.         0.         0.      
 acnqsmod            0.         0.         0.         0.      
 rbodymod            1.0000     1.0000     1.0000     1.0000  
 rgatemod            1.0000     1.0000     1.0000     1.0000  
 geomod              0.         0.         0.         0.      
 rgeomod             0.         0.         0.         0.      
 delvto              0.         0.         0.         0.      
 mulu0               1.0000     1.0000     1.0000     1.0000  
 delk1               0.         0.         0.         0.      
 delnfct             0.         0.         0.         0.      
 deltox              0.         0.         0.         0.      
 sa                  0.         0.         0.         0.      
 sb                  0.         0.         0.         0.      
 sd                  0.         0.         0.         0.      
 saeff               0.         0.         0.         0.      
 sbeff               0.         0.         0.         0.      
  
  
                                                              
 element name       12:m2      12:m3      13:m5      13:m4    
 drain              12:bit_b   12:bit     13:bit     13:bit_b 
 gate               12:bit     12:bit_b   13:bit_b   13:bit   
 source              0:vdd!     0:vdd!     0:0        0:0     
 bulk                0:vdd!     0:vdd!     0:0        0:0     
 model               0:pmos     0:pmos     0:nmos     0:nmos  
 w eff               5.0322m    5.0322m   30.9880u   30.9880u 
 l eff              29.0000n   29.0000n   29.0000n   29.0000n 
 rd eff              0.         0.         0.         0.      
 rs eff              0.         0.         0.         0.      
 cdsat             507.7401f  507.7401f    2.9181f    2.9181f 
 cssat             507.7401f  507.7401f    2.9181f    2.9181f 
 capbd             133.6681a  133.6681a  178.5462a  178.5462a 
 capbs             116.1033a  116.1033a  152.1990a  152.1990a 
 temp               25.0000    25.0000    25.0000    25.0000  
 aic                                                          
 nf                  1.0000     1.0000     1.0000     1.0000  
 min                 0.         0.         0.         0.      
 rbdb               15.0000    15.0000    15.0000    15.0000  
 rbsb               15.0000    15.0000    15.0000    15.0000  
 rbpb                5.0000     5.0000     5.0000     5.0000  
 rbps               15.0000    15.0000    15.0000    15.0000  
 rbpd               15.0000    15.0000    15.0000    15.0000  
 trnqsmod            0.         0.         0.         0.      
 acnqsmod            0.         0.         0.         0.      
 rbodymod            1.0000     1.0000     1.0000     1.0000  
 rgatemod            1.0000     1.0000     1.0000     1.0000  
 geomod              0.         0.         0.         0.      
 rgeomod             0.         0.         0.         0.      
 delvto              0.         0.         0.         0.      
 mulu0               1.0000     1.0000     1.0000     1.0000  
 delk1               0.         0.         0.         0.      
 delnfct             0.         0.         0.         0.      
 deltox              0.         0.         0.         0.      
 sa                  0.         0.         0.         0.      
 sb                  0.         0.         0.         0.      
 sd                  0.         0.         0.         0.      
 saeff               0.         0.         0.         0.      
 sbeff               0.         0.         0.         0.      
  
  
                                                               
 element name       13:m1       13:m0      13:m2      13:m3    
 drain               0:bl_b63    0:bl63    13:bit_b   13:bit   
 gate                0:0         0:0       13:bit     13:bit_b 
 source             13:bit_b    13:bit      0:vdd!     0:vdd!  
 bulk                0:0         0:0        0:vdd!     0:vdd!  
 model               0:nmos      0:nmos     0:pmos     0:pmos  
 w eff              19.8120u    19.8120u   19.8120u   19.8120u 
 l eff              29.0000n    29.0000n   29.0000n   29.0000n 
 rd eff              0.          0.         0.         0.      
 rs eff              0.          0.         0.         0.      
 cdsat               1.9990f     1.9990f    1.9990f    1.9990f 
 cssat               1.9990f     1.9990f    1.9990f    1.9990f 
 capbd             133.6681a   133.6681a  133.6681a  133.6681a 
 capbs             116.1033a   116.1033a  116.1033a  116.1033a 
 temp               25.0000     25.0000    25.0000    25.0000  
 aic                                                           
 nf                  1.0000      1.0000     1.0000     1.0000  
 min                 0.          0.         0.         0.      
 rbdb               15.0000     15.0000    15.0000    15.0000  
 rbsb               15.0000     15.0000    15.0000    15.0000  
 rbpb                5.0000      5.0000     5.0000     5.0000  
 rbps               15.0000     15.0000    15.0000    15.0000  
 rbpd               15.0000     15.0000    15.0000    15.0000  
 trnqsmod            0.          0.         0.         0.      
 acnqsmod            0.          0.         0.         0.      
 rbodymod            1.0000      1.0000     1.0000     1.0000  
 rgatemod            1.0000      1.0000     1.0000     1.0000  
 geomod              0.          0.         0.         0.      
 rgeomod             0.          0.         0.         0.      
 delvto              0.          0.         0.         0.      
 mulu0               1.0000      1.0000     1.0000     1.0000  
 delk1               0.          0.         0.         0.      
 delnfct             0.          0.         0.         0.      
 deltox              0.          0.         0.         0.      
 sa                  0.          0.         0.         0.      
 sb                  0.          0.         0.         0.      
 sd                  0.          0.         0.         0.      
 saeff               0.          0.         0.         0.      
 sbeff               0.          0.         0.         0.      
  
  
                                                               
 element name       14:m5      14:m4      14:m1       14:m0    
 drain              14:bit     14:bit_b    0:bl_b63    0:bl63  
 gate               14:bit_b   14:bit      0:wl0       0:wl0   
 source              0:0        0:0       14:bit_b    14:bit   
 bulk                0:0        0:0        0:0         0:0     
 model               0:nmos     0:nmos     0:nmos      0:nmos  
 w eff             122.0000n  122.0000n   78.0000n    78.0000n 
 l eff              29.0000n   29.0000n   29.0000n    29.0000n 
 rd eff              0.         0.         0.          0.      
 rs eff              0.         0.         0.          0.      
 cdsat              11.4887a   11.4887a    7.8700a     7.8700a 
 cssat              11.4887a   11.4887a    7.8700a     7.8700a 
 capbd             178.5462a  178.5462a  133.6681a   133.6681a 
 capbs             152.1990a  152.1990a  116.1033a   116.1033a 
 temp               25.0000    25.0000    25.0000     25.0000  
 aic                                                           
 nf                  1.0000     1.0000     1.0000      1.0000  
 min                 0.         0.         0.          0.      
 rbdb               15.0000    15.0000    15.0000     15.0000  
 rbsb               15.0000    15.0000    15.0000     15.0000  
 rbpb                5.0000     5.0000     5.0000      5.0000  
 rbps               15.0000    15.0000    15.0000     15.0000  
 rbpd               15.0000    15.0000    15.0000     15.0000  
 trnqsmod            0.         0.         0.          0.      
 acnqsmod            0.         0.         0.          0.      
 rbodymod            1.0000     1.0000     1.0000      1.0000  
 rgatemod            1.0000     1.0000     1.0000      1.0000  
 geomod              0.         0.         0.          0.      
 rgeomod             0.         0.         0.          0.      
 delvto              0.         0.         0.          0.      
 mulu0               1.0000     1.0000     1.0000      1.0000  
 delk1               0.         0.         0.          0.      
 delnfct             0.         0.         0.          0.      
 deltox              0.         0.         0.          0.      
 sa                  0.         0.         0.          0.      
 sb                  0.         0.         0.          0.      
 sd                  0.         0.         0.          0.      
 saeff               0.         0.         0.          0.      
 sbeff               0.         0.         0.          0.      
  
  
                                                              
 element name       14:m2      14:m3      15:m5      15:m4    
 drain              14:bit_b   14:bit     15:bit     15:bit_b 
 gate               14:bit     14:bit_b   15:bit_b   15:bit   
 source              0:vdd!     0:vdd!     0:0        0:0     
 bulk                0:vdd!     0:vdd!     0:0        0:0     
 model               0:pmos     0:pmos     0:nmos     0:nmos  
 w eff              78.0000n   78.0000n   30.9880u   30.9880u 
 l eff              29.0000n   29.0000n   29.0000n   29.0000n 
 rd eff              0.         0.         0.         0.      
 rs eff              0.         0.         0.         0.      
 cdsat               7.8700a    7.8700a    2.9181f    2.9181f 
 cssat               7.8700a    7.8700a    2.9181f    2.9181f 
 capbd             133.6681a  133.6681a  178.5462a  178.5462a 
 capbs             116.1033a  116.1033a  152.1990a  152.1990a 
 temp               25.0000    25.0000    25.0000    25.0000  
 aic                                                          
 nf                  1.0000     1.0000     1.0000     1.0000  
 min                 0.         0.         0.         0.      
 rbdb               15.0000    15.0000    15.0000    15.0000  
 rbsb               15.0000    15.0000    15.0000    15.0000  
 rbpb                5.0000     5.0000     5.0000     5.0000  
 rbps               15.0000    15.0000    15.0000    15.0000  
 rbpd               15.0000    15.0000    15.0000    15.0000  
 trnqsmod            0.         0.         0.         0.      
 acnqsmod            0.         0.         0.         0.      
 rbodymod            1.0000     1.0000     1.0000     1.0000  
 rgatemod            1.0000     1.0000     1.0000     1.0000  
[...]
  vod       225.6936m   629.4006m   225.6948m   629.4019m   225.6936m
  beta        1.2499m     3.1249m     1.2499m     3.1249m     1.2499m
  gam eff   394.0000m   441.0000m   394.0000m   441.0000m   394.0000m
  gm        301.1907n     4.9701n   301.1816n     5.0095n   301.1907n
  gds        28.8848n   632.3858u    28.8839n   632.3858u    28.8848n
  gmb        67.6510n     2.6184n    67.6489n     2.6392n    67.6510n
  cdtot     501.9346a   380.0827a   501.9346a   380.0827a   501.9346a
  cgtot     345.2520a   246.6552a   345.2518a   246.6552a   345.2520a
  cstot     577.2707a   254.7907a   577.2704a   254.7907a   577.2707a
  cbtot     861.1739a   397.0925a   861.1740a   397.0925a   861.1739a
  cgs       171.6161a   134.4085a   171.6159a   134.4086a   171.6161a
  cgd       110.0461a   113.9858a   110.0461a   113.9858a   110.0461a



 subckt    xdecoder.x  xdecoder.x  xdecoder.x  xdecoder.x  xdecoder.x
 element  70:m2       71:m10      71:m9       71:m1       71:m7      
 model     0:nmos      0:nmos      0:nmos      0:nmos      0:pmos    
 region        Linear      Cutoff      Linear      Cutoff      Linear
  id         12.7303n   801.4139p   456.8262p   112.2377p  -892.4795p
  ibs       8.834e-25   9.921e-26  -105.7641f  -105.7652f  -5.835e-25
  ibd       -20.1445a  -105.7641f  -105.7652f    -1.0000p     5.0717a
  vgs       999.9949m    18.9202u   894.2491m  -105.7330m  -999.9811m
  vds        20.1301u   105.7509m     1.1043u   894.2430m    -5.0681u
  vbs         0.          0.       -105.7509m  -105.7520m     0.     
  vth       370.5943m   363.3809m   395.4731m   334.4705m  -310.7630m
  vdsat     336.4765m    40.1909m   280.5649m    40.0424m  -503.9527m
  vod       629.4006m  -363.3620m   498.7760m  -440.2036m  -689.2181m
  beta        3.1249m     2.8312m     2.2448m     2.9349m   317.5725u
  gam eff   441.0000m   441.0000m   441.0000m   441.0000m   394.0000m
  gm          4.9701n    20.4844n   288.5937p     2.9465n   757.2930p
  gds       632.3858u     2.0281n   413.6738u   219.8561p   176.0959u
  gmb         2.6184n     6.0417n   122.3076p   846.8493p   304.8998p
  cdtot     380.0827a   186.9736a   271.7384a   149.9389a   378.1366a
  cgtot     246.6552a    93.2690a   170.2722a    78.9704a   254.9590a
  cstot     254.7907a   174.4336a   188.8754a   165.6914a   257.9501a
  cbtot     397.0925a   303.2542a   298.0448a   271.7759a   393.4433a
  cgs       134.4085a    40.0143a    93.0748a    35.6977a   143.0526a
  cgd       113.9858a    35.6971a    77.6354a    25.7150a   112.5629a



 subckt    xdecoder.x  xdecoder.x  xdecoder.x  xdecoder.x  xdecoder.x
 element  71:m6       71:m0       72:m10      72:m9       72:m1      
 model     0:pmos      0:pmos      0:nmos      0:nmos      0:nmos    
 region        Cutoff      Linear      Cutoff      Cutoff      Cutoff
  id        -56.0115f  -892.4795p   366.5525p   366.5834p   366.6396p
  ibs         0.       -5.835e-25   1.689e-26   -18.0090f   -72.5013f
  ibd         5.0717a     5.0717a   -18.0090f   -72.5013f    -1.0000p
  vgs         0.       -999.9811m    18.9202u   -18.0023m   -72.4697m
  vds        -5.0681u    -5.0681u    18.0023m    54.4863m   927.5075m
  vbs         0.          0.          0.        -18.0023m   -72.4886m
  vth      -310.7630m  -310.7630m   369.3675m   371.2105m   324.5199m
  vdsat     -46.2174m  -503.9527m    40.2303m    40.2520m    39.9627m
  vod       310.7630m  -689.2181m  -369.3486m  -389.2128m  -396.9896m
  beta      367.4759u   317.5725u     2.8100m     2.8035m     2.9711m
  gam eff   394.0000m   394.0000m   441.0000m   441.0000m   441.0000m
  gm          1.4710p   757.2930p     9.3772n     9.4361n     9.5370n
  gds        11.0512n   176.0959u    15.0891n     2.2131n   711.7077p
  gmb       352.9993f   304.8998p     2.7875n     2.7945n     2.7321n
  cdtot     258.8316a   378.1366a   194.7703a   189.8398a   149.9388a
  cgtot     136.6817a   254.9590a    96.8476a    93.8525a    80.2929a
  cstot     228.0318a   257.9501a   174.4335a   172.8988a   168.3430a
  cbtot     393.7699a   393.4433a   307.4722a   304.0025a   273.1049a
  cgs        57.4452a   143.0526a    40.0142a    39.2759a    37.0203a
  cgd        57.4430a   112.5629a    39.2758a    37.0188a    25.7149a



 subckt    xdecoder.x  xdecoder.x  xdecoder.x  xdecoder.x  xdecoder.x
 element  72:m7       72:m6       72:m0       73:m10      73:m9      
 model     0:pmos      0:pmos      0:pmos      0:nmos      0:nmos    
 region        Linear      Linear      Linear      Cutoff      Linear
  id       -678.6967p  -678.7076p  -678.6967p   801.4139p   456.8262p
  ibs      -5.835e-25  -5.837e-25  -5.835e-25   9.921e-26  -105.7641f
  ibd         3.8569a     3.8569a     3.8569a  -105.7641f  -105.7652f
  vgs      -999.9811m    -1.0000   -999.9811m    18.9202u   894.2491m
  vds        -3.8541u    -3.8541u    -3.8541u   105.7509m     1.1043u
  vbs         0.          0.          0.          0.       -105.7509m
  vth      -310.7631m  -310.7631m  -310.7631m   363.3809m   395.4731m
  vdsat    -503.9526m  -503.9637m  -503.9526m    40.1909m   280.5649m
  vod      -689.2180m  -689.2369m  -689.2180m  -363.3620m   498.7760m
  beta      317.5725u   317.5699u   317.5725u     2.8312m     2.2448m
  gam eff   394.0000m   394.0000m   394.0000m   441.0000m   441.0000m
  gm        575.8916p   575.8761p   575.8916p    20.4844n   288.5937p
  gds       176.0963u   176.0992u   176.0963u     2.0281n   413.6738u
  gmb       231.8646p   231.8623p   231.8646p     6.0417n   122.3076p
  cdtot     378.1370a   378.1376a   378.1370a   186.9736a   271.7384a
  cgtot     254.9590a   254.9593a   254.9590a    93.2690a   170.2722a
  cstot     257.9499a   257.9499a   257.9499a   174.4336a   188.8754a
  cbtot     393.4434a   393.4434a   393.4434a   303.2542a   298.0448a
  cgs       143.0525a   143.0526a   143.0525a    40.0143a    93.0748a
  cgd       112.5630a   112.5633a   112.5630a    35.6971a    77.6354a



 subckt    xdecoder.x  xdecoder.x  xdecoder.x  xdecoder.x  xdecoder.x
 element  73:m1       73:m7       73:m6       73:m0       74:m10     
 model     0:nmos      0:pmos      0:pmos      0:pmos      0:nmos    
 region        Cutoff      Linear      Cutoff      Linear      Cutoff
  id        112.2377p  -892.4795p   -56.0115f  -892.4795p   366.5525p
  ibs      -105.7652f  -5.835e-25     0.       -5.835e-25   1.689e-26
  ibd        -1.0000p     5.0717a     5.0717a     5.0717a   -18.0090f
  vgs      -105.7330m  -999.9811m     0.       -999.9811m    18.9202u
  vds       894.2430m    -5.0681u    -5.0681u    -5.0681u    18.0023m
  vbs      -105.7520m     0.          0.          0.          0.     
  vth       334.4705m  -310.7630m  -310.7630m  -310.7630m   369.3675m
  vdsat      40.0424m  -503.9527m   -46.2174m  -503.9527m    40.2303m
  vod      -440.2036m  -689.2181m   310.7630m  -689.2181m  -369.3486m
  beta        2.9349m   317.5725u   367.4759u   317.5725u     2.8100m
  gam eff   441.0000m   394.0000m   394.0000m   394.0000m   441.0000m
  gm          2.9465n   757.2930p     1.4710p   757.2930p     9.3772n
  gds       219.8561p   176.0959u    11.0512n   176.0959u    15.0891n
  gmb       846.8493p   304.8998p   352.9993f   304.8998p     2.7875n
  cdtot     149.9389a   378.1366a   258.8316a   378.1366a   194.7703a
  cgtot      78.9704a   254.9590a   136.6817a   254.9590a    96.8476a
  cstot     165.6914a   257.9501a   228.0318a   257.9501a   174.4335a
  cbtot     271.7759a   393.4433a   393.7699a   393.4433a   307.4722a
  cgs        35.6977a   143.0526a    57.4452a   143.0526a    40.0142a
  cgd        25.7150a   112.5629a    57.4430a   112.5629a    39.2758a



 subckt    xdecoder.x  xdecoder.x  xdecoder.x  xdecoder.x  xdecoder.x
 element  74:m9       74:m1       74:m7       74:m6       74:m0      
 model     0:nmos      0:nmos      0:pmos      0:pmos      0:pmos    
 region        Cutoff      Cutoff      Linear      Linear      Linear
  id        366.5834p   366.6396p  -678.6967p  -678.7076p  -678.6967p
  ibs       -18.0090f   -72.5013f  -5.835e-25  -5.837e-25  -5.835e-25
  ibd       -72.5013f    -1.0000p     3.8569a     3.8569a     3.8569a
  vgs       -18.0023m   -72.4697m  -999.9811m    -1.0000   -999.9811m
  vds        54.4863m   927.5075m    -3.8541u    -3.8541u    -3.8541u
  vbs       -18.0023m   -72.4886m     0.          0.          0.     
  vth       371.2105m   324.5199m  -310.7631m  -310.7631m  -310.7631m
  vdsat      40.2520m    39.9627m  -503.9526m  -503.9637m  -503.9526m
  vod      -389.2128m  -396.9896m  -689.2180m  -689.2369m  -689.2180m
  beta        2.8035m     2.9711m   317.5725u   317.5699u   317.5725u
  gam eff   441.0000m   441.0000m   394.0000m   394.0000m   394.0000m
  gm          9.4361n     9.5370n   575.8916p   575.8761p   575.8916p
  gds         2.2131n   711.7077p   176.0963u   176.0992u   176.0963u
  gmb         2.7945n     2.7321n   231.8646p   231.8623p   231.8646p
  cdtot     189.8398a   149.9388a   378.1370a   378.1376a   378.1370a
  cgtot      93.8525a    80.2929a   254.9590a   254.9593a   254.9590a
  cstot     172.8988a   168.3430a   257.9499a   257.9499a   257.9499a
  cbtot     304.0025a   273.1049a   393.4434a   393.4434a   393.4434a
  cgs        39.2759a    37.0203a   143.0525a   143.0526a   143.0525a
  cgd        37.0188a    25.7149a   112.5630a   112.5633a   112.5630a



 subckt    xclk_gen.x  xclk_gen.x  xclk_gen.x  xclk_gen.x  xclk_gen.x
 element  78:m_0      78:m_1      79:m_0      79:m_1      80:m_0     
 model     0:nmos      0:pmos      0:nmos      0:pmos      0:nmos    
 region        Cutoff      Linear      Linear      Cutoff      Cutoff
  id          7.6210n   -16.0612n    54.8624n   -57.2547n   121.9947n
  ibs       9.392e-25  -2.103e-24   4.072e-24  -3.765e-24   1.503e-23
  ibd      -999.9954f    25.6407a   -75.7425a     4.0002p   -15.9999p
  vgs         0.         -1.0000    999.9744m   -25.5802u    18.9202u
  vds       999.9744m   -25.5802u    18.9202u  -999.9811m   999.9744m
  vbs         0.          0.          0.          0.          0.     
  vth       302.3784m  -310.7612m   370.5944m  -225.6986m   302.3784m
  vdsat      39.8318m  -504.5937m   337.0862m   -46.2016m    39.8318m
  vod      -302.3784m  -689.2388m   629.3800m   225.6730m  -302.3595m
  beta        5.0666m     1.1424m    14.4096m     6.0227m    81.0664m
  gam eff   441.0000m   394.0000m   441.0000m   394.0000m   441.0000m
  gm        191.9183n    13.5110n    21.3085n     1.4521u     3.0721u
  gds        14.3449n   627.8611u     2.8996m   139.2593n   229.6257n
  gmb        54.4515n     5.4389n    11.2233n   326.1537n   871.6237n
  cdtot     220.4434a     1.2194f     1.7195f     2.3833f     3.5271f
  cgtot     137.7687a   915.2162a     1.1369f     1.6630f     2.2043f
  cstot     255.0966a   792.2893a     1.1430f     2.7389f     4.0816f
  cbtot     395.0850a     1.1369f     1.7655f     4.0710f     6.3214f
  cgs        66.4274a   514.6013a   619.7720a   826.9676a     1.0629f
  cgd        42.6865a   404.9048a   525.6006a   530.2694a   682.9857a



 subckt    xclk_gen.x  xclk_gen.x  xclk_gen.x  xa0_gen.xg  xa0_gen.xg
 element  80:m_1      81:m_0      81:m_1      82:m_0      82:m_1     
 model     0:pmos      0:nmos      0:pmos      0:nmos      0:pmos    
 region        Linear      Linear      Cutoff      Cutoff      Linear
  id       -257.0380n   986.5605n  -916.0696n     7.6210n   -16.0612n
  ibs      -3.364e-23   6.516e-23  -6.024e-23   9.392e-25  -2.103e-24
  ibd       410.3531a    -1.3620f    64.0026p  -999.9954f    25.6407a
  vgs      -999.9811m   999.9744m   -25.5865u     0.         -1.0000 
  vds       -25.5865u    21.2646u  -999.9787m   999.9744m   -25.5802u
  vbs         0.          0.          0.          0.          0.     
  vth      -310.7612m   370.5942m  -225.6988m   302.3784m  -310.7612m
  vdsat    -504.5826m   337.0863m   -46.2016m    39.8318m  -504.5937m
  vod      -689.2199m   629.3802m   225.6732m  -302.3784m  -689.2388m
  beta       18.2781m   230.5529m    96.3633m     5.0666m     1.1424m
  gam eff   394.0000m   441.0000m   394.0000m   441.0000m   394.0000m
  gm        216.2348n   383.1837n    23.2334u   191.9183n    13.5110n
  gds        10.0456m    46.3934m     2.2281u    14.3449n   627.8611u
  gmb        87.0444n   201.8231n     5.2184u    54.4515n     5.4389n
  cdtot      19.5104f    27.5114f    38.1333f   220.4434a     1.2194f
  cgtot      14.6434f    18.1904f    26.6086f   137.7687a   915.2162a
  cstot      12.6766f    18.2873f    43.8225f   255.0966a   792.2893a
  cbtot      18.1907f    28.2486f    65.1361f   395.0850a     1.1369f
  cgs         8.2336f     9.9164f    13.2315f    66.4274a   514.6013a
  cgd         6.4785f     8.4096f     8.4843f    42.6865a   404.9048a



 subckt    xa0_gen.xg  xa0_gen.xg  xa0_gen.xg  xa0_gen.xg  xa0_gen.xg
 element  83:m_0      83:m_1      84:m_0      84:m_1      85:m_0     
 model     0:nmos      0:pmos      0:nmos      0:pmos      0:nmos    
 region        Linear      Cutoff      Cutoff      Linear      Linear
  id         54.8624n   -57.2547n   121.9947n  -257.0380n   986.5605n
  ibs       4.072e-24  -3.765e-24   1.503e-23  -3.364e-23   6.516e-23
  ibd       -75.7425a     4.0002p   -15.9999p   410.3531a    -1.3620f
  vgs       999.9744m   -25.5802u    18.9202u  -999.9811m   999.9744m
  vds        18.9202u  -999.9811m   999.9744m   -25.5865u    21.2646u
  vbs         0.          0.          0.          0.          0.     
  vth       370.5944m  -225.6986m   302.3784m  -310.7612m   370.5942m
  vdsat     337.0862m   -46.2016m    39.8318m  -504.5826m   337.0863m
  vod       629.3800m   225.6730m  -302.3595m  -689.2199m   629.3802m
  beta       14.4096m     6.0227m    81.0664m    18.2781m   230.5529m
  gam eff   441.0000m   394.0000m   441.0000m   394.0000m   441.0000m
  gm         21.3085n     1.4521u     3.0721u   216.2348n   383.1837n
  gds         2.8996m   139.2593n   229.6257n    10.0456m    46.3934m
  gmb        11.2233n   326.1537n   871.6237n    87.0444n   201.8231n
  cdtot       1.7195f     2.3833f     3.5271f    19.5104f    27.5114f
  cgtot       1.1369f     1.6630f     2.2043f    14.6434f    18.1904f
  cstot       1.1430f     2.7389f     4.0816f    12.6766f    18.2873f
  cbtot       1.7655f     4.0710f     6.3214f    18.1907f    28.2486f
  cgs       619.7720a   826.9676a     1.0629f     8.2336f     9.9164f
  cgd       525.6006a   530.2694a   682.9857a     6.4785f     8.4096f



 subckt    xa0_gen.xg  xa255_gen.  xa255_gen.  xa255_gen.  xa255_gen.
 element  85:m_1      86:m_0      86:m_1      87:m_0      87:m_1     
 model     0:pmos      0:nmos      0:pmos      0:nmos      0:pmos    
 region        Cutoff      Cutoff      Linear      Linear      Cutoff
  id       -916.0696n     7.6210n   -16.0612n    54.8624n   -57.2547n
  ibs      -6.024e-23   9.392e-25  -2.103e-24   4.072e-24  -3.765e-24
  ibd        64.0026p  -999.9954f    25.6407a   -75.7425a     4.0002p
  vgs       -25.5865u     0.         -1.0000    999.9744m   -25.5802u
  vds      -999.9787m   999.9744m   -25.5802u    18.9202u  -999.9811m
  vbs         0.          0.          0.          0.          0.     
  vth      -225.6988m   302.3784m  -310.7612m   370.5944m  -225.6986m
  vdsat     -46.2016m    39.8318m  -504.5937m   337.0862m   -46.2016m
  vod       225.6732m  -302.3784m  -689.2388m   629.3800m   225.6730m
  beta       96.3633m     5.0666m     1.1424m    14.4096m     6.0227m
  gam eff   394.0000m   441.0000m   394.0000m   441.0000m   394.0000m
  gm         23.2334u   191.9183n    13.5110n    21.3085n     1.4521u
  gds         2.2281u    14.3449n   627.8611u     2.8996m   139.2593n
  gmb         5.2184u    54.4515n     5.4389n    11.2233n   326.1537n
  cdtot      38.1333f   220.4434a     1.2194f     1.7195f     2.3833f
  cgtot      26.6086f   137.7687a   915.2162a     1.1369f     1.6630f
  cstot      43.8225f   255.0966a   792.2893a     1.1430f     2.7389f
  cbtot      65.1361f   395.0850a     1.1369f     1.7655f     4.0710f
  cgs        13.2315f    66.4274a   514.6013a   619.7720a   826.9676a
  cgd         8.4843f    42.6865a   404.9048a   525.6006a   530.2694a



 subckt    xa255_gen.  xa255_gen.  xa255_gen.  xa255_gen.
 element  88:m_0      88:m_1      89:m_0      89:m_1     
 model     0:nmos      0:pmos      0:nmos      0:pmos    
 region        Cutoff      Linear      Linear      Cutoff
  id        121.9947n  -257.0380n   986.5605n  -916.0696n
  ibs       1.503e-23  -3.364e-23   6.516e-23  -6.024e-23
  ibd       -15.9999p   410.3531a    -1.3620f    64.0026p
  vgs        18.9202u  -999.9811m   999.9744m   -25.5865u
  vds       999.9744m   -25.5865u    21.2646u  -999.9787m
  vbs         0.          0.          0.          0.     
  vth       302.3784m  -310.7612m   370.5942m  -225.6988m
  vdsat      39.8318m  -504.5826m   337.0863m   -46.2016m
  vod      -302.3595m  -689.2199m   629.3802m   225.6732m
  beta       81.0664m    18.2781m   230.5529m    96.3633m
  gam eff   441.0000m   394.0000m   441.0000m   394.0000m
  gm          3.0721u   216.2348n   383.1837n    23.2334u
  gds       229.6257n    10.0456m    46.3934m     2.2281u
  gmb       871.6237n    87.0444n   201.8231n     5.2184u
  cdtot       3.5271f    19.5104f    27.5114f    38.1333f
  cgtot       2.2043f    14.6434f    18.1904f    26.6086f
  cstot       4.0816f    12.6766f    18.2873f    43.8225f
  cbtot       6.3214f    18.1907f    28.2486f    65.1361f
  cgs         1.0629f     8.2336f     9.9164f    13.2315f
  cgd       682.9857a     6.4785f     8.4096f     8.4843f



 ******  
 part 2

  ******  transient analysis tnom=  25.000 temp=  27.000 *****
 wl0_rise= 263.4954p  targ= 831.6002p   trig= 568.1049p
 wl0_width= 512.9746p  targ=   1.3446n   trig= 831.6002p
 wl0_fall= 276.3950p  targ=   1.3446n   trig=   1.0682n
 wl1_rise= 263.4982p  targ=   1.8316n   trig=   1.5681n
 wl1_fall= 276.5212p  targ=   2.3448n   trig=   2.0682n
 bl0_split= 109.5596m    at=   1.0150n
             from= 500.0000p    to=   1.5000n
 bl1_split= 123.6593m    at=   1.0150n
             from= 500.0000p    to=   1.5000n
 bl_pc_overlap= 276.3950p  targ=   1.3446n   trig=   1.0682n
 bl63_pc_overlap= 276.5212p  targ=   2.3448n   trig=   2.0682n

          ***** job concluded
1****** HSPICE -- F-2011.09-SP2 32-BIT (Feb 27 2012) linux ******               
 ******  
 part 2

  ******  job statistics summary tnom=  25.000 temp=  27.000 *****
  
  
 ******  Machine Information  ******
 CPU:
 model name	: Quad-Core AMD Opteron(tm) Processor 2384
 cpu MHz	: 2700.000
  
 OS:
 Linux version 3.2.0-36-generic (buildd@allspice) (gcc version 4.6.3 (Ubuntu/Lin
 aro 4.6.3-1ubuntu5) ) #57-Ubuntu SMP Tue Jan 8 21:44:52 UTC 2013


  ******  HSPICE Threads Information  ******

  Command Line Threads Count :     1
  Available CPU Count        :     8
  Actual Threads Count       :     1


  ******  Circuit Statistics  ******
  # nodes       =    1182 # elements   =     330
  # resistors   =       1 # capacitors =      30 # inductors   =       0
  # mutual_inds =       0 # vccs       =       0 # vcvs        =       3
  # cccs        =       6 # ccvs       =       0 # volt_srcs   =      31
  # curr_srcs   =       0 # diodes     =       0 # bjts        =       0
  # jfets       =       0 # mosfets    =     259 # U elements  =       0
  # T elements  =       0 # W elements =       0 # B elements  =       0
  # S elements  =       0 # P elements =       0 # va device   =       0
  # vector_srcs =       0


  ******  Runtime Statistics (seconds)  ******

  analysis           time    # points   tot. iter  conv.iter
  op point           0.58           1         409
  transient          8.36       16667       18510        2738 rev=       477
  readin             0.02
  errchk             0.08
  setup              0.00
  output             0.00


           peak memory used         91.96 megabytes
           total cpu time            9.04 seconds
           total elapsed time        9.70 seconds
           job started at     17:01:01 03/08/2013
           job ended   at     17:01:10 03/08/2013


 lic: Release hspice token(s) 
