Using: /usr/class/ee/synopsys/hspice/F-2011.09-SP2/hspice/linux/hspice part2.hsp
 ****** HSPICE -- F-2011.09-SP2 32-BIT (Feb 27 2012) linux ******               
  Copyright (C) 2011 Synopsys, Inc. All Rights Reserved.                        
  Unpublished-rights reserved under US copyright laws.
  This program is protected by law and is subject to the
  terms and conditions of the license agreement from Synopsys.
  Use of this program is your acceptance to be bound by the
  license agreement. HSPICE is the trademark of Synopsys, Inc.
  Input File: part2.hsp                                                         
  Command line options: part2.hsp
 lic:  
 lic: FLEXlm: v10.8 
 lic: USER:   veharvey             HOSTNAME: myth11 
 lic: HOSTID: 001ec92fa1ac         PID:      30134 
 lic: Using FLEXlm license file: 
 lic: 27000@cadlic0.stanford.edu 
 lic: Checkout 1 hspice 
 lic: License/Maintenance for hspice will expire on 16-nov-2013/2012.06 
 lic: 4(in_use)/100(total) FLOATING license(s) on SERVER cadlic0.stanford.edu 
 lic:   
 Init: read install configuration file: /usr/class/ee/synopsys/hspice/F-2011.09-SP2/hspice/meta.cfg

 **warning**  runlvl smaller than 5, reset to 5  when accurate turned on
 scientific notation:
 a=10**-18  f=10**-15  p=10**-12  n=10**-9  u=10**-6
 m=10**-3   k=10**3    x=10**6    g=10**9 
  **warning** (/afs/ir/users/v/e/veharvey/ee313/netlist/projectPart2.testrig.ckt:5) Global net name, "vdd", in subckt pin list. The pin will be connected to the local net. Recommend to not use global net names in subckt pin lists.

 **warning**  runlvl smaller than 5, reset to 5  when accurate turned on
1****** HSPICE -- F-2011.09-SP2 32-BIT (Feb 27 2012) linux ******               
 ******  
 part 2

  ******  circuit name directory
 circuit number to circuit name directory
   number circuitname                     definition         multiplier
        0 main circuit
        1 xarray.                         array              1.00 
        2 xdecoder.                       decoder            1.00 
        3 xsense63.                       sense              1.00 
        4 xsense0.                        sense              1.00 
        5 xclk_gen.                       clk_gen            1.00 
        6 xa0_gen.                        a0_gen             1.00 
        7 xa255_gen.                      a255_gen           1.00 
        8 xarray.xmcbr.                   mc                 1.00 
        9 xarray.xmcbm.                   mc               254.00 
       10 xarray.xmcbl.                   mc                 1.00 
       11 xarray.xmcml.                   mc               254.00 
       12 xarray.xmcmm.                   mc                64.52k
       13 xarray.xmcmr.                   mc               254.00 
       14 xarray.xmctr.                   mc                 1.00 
       15 xarray.xmctm.                   mc               254.00 
       16 xarray.xmctl.                   mc                 1.00 
       17 xarray.xwriter.                 write              1.00 
       18 xarray.xwritem.                 write            254.00 
       19 xarray.xwritel.                 write              1.00 
       20 xdecoder.xpredecoder416.        predecode_416      1.00 
       21 xdecoder.xdecoder_stage.        decode_stage       1.00 
       22 xdecoder.xpredecoder24.         predecode_24       1.00 
       23 xsense63.xu1.                   inv_pcell_9        1.00 
       24 xsense63.xu0.                   inv_pcell_9        1.00 
       25 xsense63.xu3.                   inv_pcell_10       1.00 
       26 xsense63.xu2.                   inv_pcell_10       1.00 
       27 xsense0.xu1.                    inv_pcell_9        1.00 
       28 xsense0.xu0.                    inv_pcell_9        1.00 
       29 xsense0.xu3.                    inv_pcell_10       1.00 
       30 xsense0.xu2.                    inv_pcell_10       1.00 
       31 xclk_gen.xgen.                  signal_gen         1.00 
       32 xa0_gen.xgen.                   signal_gen         1.00 
       33 xa255_gen.xgen.                 signal_gen         1.00 
       34 xarray.xwriter.xu0.             inv_pcell_0        1.00 
       35 xarray.xwriter.xu2.             inv_pcell_1        1.00 
       36 xarray.xwriter.xu1.             inv_pcell_1        1.00 
       37 xarray.xwritem.xu0.             inv_pcell_0      254.00 
       38 xarray.xwritem.xu2.             inv_pcell_1      254.00 
       39 xarray.xwritem.xu1.             inv_pcell_1      254.00 
       40 xarray.xwritel.xu0.             inv_pcell_0        1.00 
       41 xarray.xwritel.xu2.             inv_pcell_1        1.00 
       42 xarray.xwritel.xu1.             inv_pcell_1        1.00 
       43 xdecoder.xpredecoder416.xi16.   nand_pcell_2       1.00 
       44 xdecoder.xpredecoder416.xi15.   nand_pcell_2       1.00 
       45 xdecoder.xpredecoder416.xi17.   nand_pcell_2       1.00 
       46 xdecoder.xpredecoder416.xi18.   nand_pcell_2       1.00 
       47 xdecoder.xpredecoder416.xu15.   inv_pcell_3        1.00 
       48 xdecoder.xpredecoder416.xu14.   inv_pcell_3        1.00 
       49 xdecoder.xpredecoder416.xu13.   inv_pcell_3        1.00 
       50 xdecoder.xpredecoder416.xu12.   inv_pcell_3        1.00 
       51 xdecoder.xpredecoder416.xu11.   inv_pcell_4        1.00 
       52 xdecoder.xpredecoder416.xu10.   inv_pcell_4        1.00 
       53 xdecoder.xpredecoder416.xu9.    inv_pcell_4        1.00 
       54 xdecoder.xpredecoder416.xu8.    inv_pcell_4        1.00 
       55 xdecoder.xpredecoder416.xu0.    inv_pcell_5        1.00 
       56 xdecoder.xpredecoder416.xu1.    inv_pcell_5        1.00 
       57 xdecoder.xpredecoder416.xu2.    inv_pcell_5        1.00 
       58 xdecoder.xpredecoder416.xu3.    inv_pcell_5        1.00 
       59 xdecoder.xdecoder_stage.xu3.    nand_pcell_6       1.00 
       60 xdecoder.xdecoder_stage.xu2.    nand_pcell_6       1.00 
       61 xdecoder.xdecoder_stage.xu1.    nand_pcell_6       1.00 
       62 xdecoder.xdecoder_stage.xu0.    nand_pcell_6       1.00 
       63 xdecoder.xdecoder_stage.xu8.    inv_pcell_7        1.00 
       64 xdecoder.xdecoder_stage.xu7.    inv_pcell_7        1.00 
       65 xdecoder.xdecoder_stage.xu6.    inv_pcell_7        1.00 
       66 xdecoder.xdecoder_stage.xu5.    inv_pcell_7        1.00 
       67 xdecoder.xpredecoder24.xu3.     inv_pcell_8        1.00 
       68 xdecoder.xpredecoder24.xu2.     inv_pcell_8        1.00 
       69 xdecoder.xpredecoder24.xu1.     inv_pcell_8        1.00 
       70 xdecoder.xpredecoder24.xu0.     inv_pcell_8        1.00 
       71 xdecoder.xpredecoder24.xi36.    nand3              1.00 
       72 xdecoder.xpredecoder24.xi37.    nand3              1.00 
       73 xdecoder.xpredecoder24.xi38.    nand3              1.00 
       74 xdecoder.xpredecoder24.xi39.    nand3              1.00 
       75 xclk_gen.xgen.x_0.              inv_chain_stimulus
                                                                 1.00 
       76 xa0_gen.xgen.x_0.               inv_chain_stimulus
                                                                 1.00 
       77 xa255_gen.xgen.x_0.             inv_chain_stimulus
                                                                 1.00 
       78 xclk_gen.xgen.x_0.x_0.          inv_stimulus       1.00 
       79 xclk_gen.xgen.x_0.x_1.          inv_stimulus       4.00 
       80 xclk_gen.xgen.x_0.x_2.          inv_stimulus      16.00 
       81 xclk_gen.xgen.x_0.x_3.          inv_stimulus      64.00 
       82 xa0_gen.xgen.x_0.x_0.           inv_stimulus       1.00 
       83 xa0_gen.xgen.x_0.x_1.           inv_stimulus       4.00 
       84 xa0_gen.xgen.x_0.x_2.           inv_stimulus      16.00 
       85 xa0_gen.xgen.x_0.x_3.           inv_stimulus      64.00 
       86 xa255_gen.xgen.x_0.x_0.         inv_stimulus       1.00 
       87 xa255_gen.xgen.x_0.x_1.         inv_stimulus       4.00 
       88 xa255_gen.xgen.x_0.x_2.         inv_stimulus      16.00 
       89 xa255_gen.xgen.x_0.x_3.         inv_stimulus      64.00 


 circuit parameter definitions
  parameter          =  value 

     0:supply                                                  =   1.0000       
     0:tcyc                                                    =   1.0000n      
     0:trf                                                     =  50.0000p      
     0:pd24s1pw                                                =   7.0000       
     0:pd24s1nw                                                =   5.0000       
     0:pd24s2pw                                                =  27.0000       
     0:pd24s2nw                                                =   9.0000       
     0:pd416s3pw                                               =  22.0000       
     0:pd416s3nw                                               =  11.0000       
     0:pd416s4pw                                               =  81.0000       
     0:pd416s4nw                                               =  28.0000       
     0:pd416s5pw                                               = 297.0000       
     0:pd416s5nw                                               =  99.0000       
     0:pd416s6pw                                               =   1.0810k      
     0:pd416s6nw                                               = 360.0000       
     0:dss7pw                                                  = 192.0000       
     0:dss7nw                                                  =  89.0000       
     0:dss8pw                                                  = 680.0000       
     0:dss8nw                                                  = 227.0000       
    71:nl                                                      =   2.0000       
    71:nw                                                      =   5.0000       
    71:nm                                                      =   1.0000       
    71:pl                                                      =   2.0000       
    71:pw                                                      =   7.0000       
    71:pm                                                      =   1.0000       
    78:wp                                                      =  24.0000       
    78:lp                                                      =   2.0000       
    78:wn                                                      =   8.0000       
    78:ln                                                      =   2.0000       
    79:wp                                                      =  24.0000       
    79:lp                                                      =   2.0000       
    79:wn                                                      =   8.0000       
    79:ln                                                      =   2.0000       
    80:wp                                                      =  24.0000       
    80:lp                                                      =   2.0000       
    80:wn                                                      =   8.0000       
    80:ln                                                      =   2.0000       
    81:wp                                                      =  24.0000       
    81:lp                                                      =   2.0000       
    81:wn                                                      =   8.0000       
    81:ln                                                      =   2.0000       
    82:wp                                                      =  24.0000       
    82:lp                                                      =   2.0000       
    82:wn                                                      =   8.0000       
    82:ln                                                      =   2.0000       
    83:wp                                                      =  24.0000       
    83:lp                                                      =   2.0000       
    83:wn                                                      =   8.0000       
    83:ln                                                      =   2.0000       
    84:wp                                                      =  24.0000       
    84:lp                                                      =   2.0000       
    84:wn                                                      =   8.0000       
    84:ln                                                      =   2.0000       
    85:wp                                                      =  24.0000       
    85:lp                                                      =   2.0000       
    85:wn                                                      =   8.0000       
    85:ln                                                      =   2.0000       
    86:wp                                                      =  24.0000       
    86:lp                                                      =   2.0000       
    86:wn                                                      =   8.0000       
    86:ln                                                      =   2.0000       
    87:wp                                                      =  24.0000       
    87:lp                                                      =   2.0000       
    87:wn                                                      =   8.0000       
    87:ln                                                      =   2.0000       
    88:wp                                                      =  24.0000       
    88:lp                                                      =   2.0000       
    88:wn                                                      =   8.0000       
    88:ln                                                      =   2.0000       
    89:wp                                                      =  24.0000       
    89:lp                                                      =   2.0000       
    89:wn                                                      =   8.0000       
    89:ln                                                      =   2.0000       




 constants  - tnom         kt           vt           gapsi        ni
            298.15000    4.1163e-21    25.69184m     1.11562    1.2565e+16 
  **info** (part2.hsp:38) DC voltage reset to initial transient source value              in source        0:vblpc_b             new dc=  0.1000D+01
  **warning** (/usr/class/ee313/ee313_spice_header.h:18) Both nodes of element vgnd are connected together; Line ignored.
 ** warning** associated with encrypted blocks were suppressed

1****** HSPICE -- F-2011.09-SP2 32-BIT (Feb 27 2012) linux ******               
 ******  
 part 2

  ******  circuit element summary tnom=  25.000 temp=  25.000 *****


 **** capacitors
  
  
                                                                    
 element name        2:c1           2:c0        3:c1        3:c0    
 node1               2:predec_25    2:predec    0:sapc_b    0:sae   
 node2               0:0            0:0         0:0         0:0     
 model                                                              
 cap eff            22.5300f       22.5300f   560.0000a   560.0000a 
 tc1                 0.             0.          0.          0.      
 tc2                 0.             0.          0.          0.      
 scale               1.0000         1.0000      1.0000      1.0000  
 ic                  0.             0.          0.          0.      
 m                   1.0000         1.0000      1.0000      1.0000  
 w                   0.             0.          0.          0.      
 l                   0.             0.          0.          0.      
 temp               25.0000        25.0000     25.0000     25.0000  
  
  
                                                                
 element name        4:c1        4:c0       8:c2       8:c1     
 node1               0:sapc_b    0:sae      0:bl63     0:bl_b63 
 node2               0:0         0:0        0:0        0:0      
 model                                                          
 cap eff           560.0000a   560.0000a   88.0000a   88.0000a  
 tc1                 0.          0.         0.         0.       
 tc2                 0.          0.         0.         0.       
 scale               1.0000      1.0000     1.0000     1.0000   
 ic                  0.          0.         0.         0.       
 m                   1.0000      1.0000     1.0000     1.0000   
 w                   0.          0.         0.         0.       
 l                   0.          0.         0.         0.       
 temp               25.0000     25.0000    25.0000    25.0000   
  
  
                                                              
 element name        8:c0       9:c2       9:c1       9:c0    
 node1               0:wl255    0:net24    0:net23    0:wl255 
 node2               0:0        0:0        0:0        0:0     
 model                                                        
 cap eff           140.0000a   22.3520f   22.3520f   35.5600f 
 tc1                 0.         0.         0.         0.      
 tc2                 0.         0.         0.         0.      
 scale               1.0000     1.0000     1.0000     1.0000  
 ic                  0.         0.         0.         0.      
 m                   1.0000   254.0000   254.0000   254.0000  
 w                   0.         0.         0.         0.      
 l                   0.         0.         0.         0.      
 temp               25.0000    25.0000    25.0000    25.0000  
  
  
                                                              
 element name       10:c2      10:c1      10:c0      11:c2    
 node1               0:bl0      0:bl_b0    0:wl255    0:bl0   
 node2               0:0        0:0        0:0        0:0     
 model                                                        
 cap eff            88.0000a   88.0000a  140.0000a   22.3520f 
 tc1                 0.         0.         0.         0.      
 tc2                 0.         0.         0.         0.      
 scale               1.0000     1.0000     1.0000     1.0000  
 ic                  0.         0.         0.         0.      
 m                   1.0000     1.0000     1.0000   254.0000  
 w                   0.         0.         0.         0.      
 l                   0.         0.         0.         0.      
 temp               25.0000    25.0000    25.0000    25.0000  
  
  
                                                              
 element name       11:c1      12:c2      12:c1      13:c2    
 node1               0:bl_b0    0:net24    0:net23    0:bl63  
 node2               0:0        0:0        0:0        0:0     
 model                                                        
 cap eff            22.3520f    5.6774p    5.6774p   22.3520f 
 tc1                 0.         0.         0.         0.      
 tc2                 0.         0.         0.         0.      
 scale               1.0000     1.0000     1.0000     1.0000  
 ic                  0.         0.         0.         0.      
 m                 254.0000    64.5160k   64.5160k  254.0000  
 w                   0.         0.         0.         0.      
 l                   0.         0.         0.         0.      
 temp               25.0000    25.0000    25.0000    25.0000  
  
  
                                                                
 element name       13:c1       14:c2      14:c1       14:c0    
 node1               0:bl_b63    0:bl63     0:bl_b63    0:wl0   
 node2               0:0         0:0        0:0         0:0     
 model                                                          
 cap eff            22.3520f    88.0000a   88.0000a   140.0000a 
 tc1                 0.          0.         0.          0.      
 tc2                 0.          0.         0.          0.      
 scale               1.0000      1.0000     1.0000      1.0000  
 ic                  0.          0.         0.          0.      
 m                 254.0000      1.0000     1.0000      1.0000  
 w                   0.          0.         0.          0.      
 l                   0.          0.         0.          0.      
 temp               25.0000     25.0000    25.0000     25.0000  
  
  
                                                              
 element name       15:c2      15:c1      15:c0      16:c2    
 node1               0:net24    0:net23    0:wl0      0:bl0   
 node2               0:0        0:0        0:0        0:0     
 model                                                        
 cap eff            22.3520f   22.3520f   35.5600f   88.0000a 
 tc1                 0.         0.         0.         0.      
 tc2                 0.         0.         0.         0.      
 scale               1.0000     1.0000     1.0000     1.0000  
 ic                  0.         0.         0.         0.      
 m                 254.0000   254.0000   254.0000     1.0000  
 w                   0.         0.         0.         0.      
 l                   0.         0.         0.         0.      
 temp               25.0000    25.0000    25.0000    25.0000  
  
  
                                        
 element name       16:c1      16:c0    
 node1               0:bl_b0    0:wl0   
 node2               0:0        0:0     
 model                                  
 cap eff            88.0000a  140.0000a 
 tc1                 0.         0.      
 tc2                 0.         0.      
 scale               1.0000     1.0000  
 ic                  0.         0.      
 m                   1.0000     1.0000  
 w                   0.         0.      
 l                   0.         0.      
 temp               25.0000    25.0000  


 **** voltage-controlled voltage sources
      name        +             -          dimension  function  scale
       31:e_0            31:net_3           0:0              1      poly       1.    
       32:e_0            32:net_3           0:0              1      poly       1.    
       33:e_0            33:net_3           0:0              1      poly       1.    


 **** current-controlled current sources
      name        +             -          dimension  function  multiplier
       31:f_0            31:net_4           0:0              1      poly       1.    
       31:f_1            31:net_4           0:0              1      poly       1.    
       32:f_0            32:net_4           0:0              1      poly       1.    
       32:f_1            32:net_4           0:0              1      poly       1.    
       33:f_0            33:net_4           0:0              1      poly       1.    
       33:f_1            33:net_4           0:0              1      poly       1.    


 **** independent sources

     name         node1        node2      dc volt    ac mag    ac phase    type
  v_supply  vdd               0                    1.0000     0.         0.      dc   
  v_supply1  vdd!              0                    1.0000     0.         0.      dc   
  vblpc_b  blpc_b            0                    1.0000     0.         0.      pulse
             initial value     1.0000 
             pulsed value.     0.     
             delay time...     0.     
             risetime.....    50.0000p
             falltime.....    50.0000p
             width........   450.0000p
             period.......     1.0000n

  vsae  sae               0                    0.         0.         0.      pulse
             initial value     0.     
             pulsed value.     1.0000 
             delay time...   725.0000p
             risetime.....    50.0000p
             falltime.....    50.0000p
             width........   450.0000p
             period.......     1.0000n

  vsapc_b  sapc_b            0                    1.0000     0.         0.      pulse
             initial value     1.0000 
             pulsed value.     0.     
             delay time...     0.     
             risetime.....    50.0000p
             falltime.....    50.0000p
             width........   450.0000p
             period.......     1.0000n

  vsel_b0  sel_b0            0                    1.0000     0.         0.      pulse
             initial value     1.0000 
             pulsed value.     0.     
             delay time...   500.0000p
             risetime.....    50.0000p
             falltime.....    50.0000p
             width........   450.0000p
             period.......     1.0000n

  vsel_b63  sel_b63           0                    1.0000     0.         0.      pulse
             initial value     1.0000 
             pulsed value.     0.     
             delay time...   500.0000p
             risetime.....    50.0000p
             falltime.....    50.0000p
             width........   450.0000p
             period.......     1.0000n

  vwrdata0  wrdata0           0                    0.         0.         0.      dc   
  vwrdata255  wrdata255         0                    0.         0.         0.      dc   
  vwren  wren              0                    0.         0.         0.      dc   
 xclk_gen.vsrc xclk_gen.src               0                    0.         0.         0.      pulse
             initial value     0.     
             pulsed value.     1.0000 
             delay time...   500.0000p
             risetime.....    50.0000p
             falltime.....    50.0000p
             width........   450.0000p
             period.......     1.0000n

 xa0_gen.vsrc xa0_gen.src               0                    0.         0.         0.      pulse
             initial value     0.     
             pulsed value.     1.0000 
             delay time...   375.0000p
             risetime.....    50.0000p
             falltime.....    50.0000p
             width........   950.0000p
             period.......     2.0000n

 xa255_gen.vsrc xa255_gen.src               0                    0.         0.         0.      pulse
             initial value     0.     
             pulsed value.     1.0000 
             delay time...     1.3750n
             risetime.....    50.0000p
             falltime.....    50.0000p
             width........   950.0000p
             period.......     2.0000n

 xclk_gen.xgen.v_monitor xclk_gen.xgen.net_4             0                    1.0000     0.         0.      dc   
 xclk_gen.xgen.v_sense xclk_gen.xgen.net_3             ck                   0.         0.         0.      dc   
 xa0_gen.xgen.v_monitor xa0_gen.xgen.net_4             0                    1.0000     0.         0.      dc   
 xa0_gen.xgen.v_sense xa0_gen.xgen.net_3             a0                   0.         0.         0.      dc   
 xa255_gen.xgen.v_monitor xa255_gen.xgen.net_4             0                    1.0000     0.         0.      dc   
 xa255_gen.xgen.v_sense xa255_gen.xgen.net_3             a255                 0.         0.         0.      dc   
 xclk_gen.xgen.x_0.x_0.vstimulus_supply xclk_gen.xgen.x_0.x_0.vdd_stimulus      0                    1.0000     0.         0.      dc   
 xclk_gen.xgen.x_0.x_1.vstimulus_supply xclk_gen.xgen.x_0.x_1.vdd_stimulus      0                    1.0000     0.         0.      dc   
 xclk_gen.xgen.x_0.x_2.vstimulus_supply xclk_gen.xgen.x_0.x_2.vdd_stimulus      0                    1.0000     0.         0.      dc   
 xclk_gen.xgen.x_0.x_3.vstimulus_supply xclk_gen.xgen.x_0.x_3.vdd_stimulus      0                    1.0000     0.         0.      dc   
 xa0_gen.xgen.x_0.x_0.vstimulus_supply xa0_gen.xgen.x_0.x_0.vdd_stimulus      0                    1.0000     0.         0.      dc   
 xa0_gen.xgen.x_0.x_1.vstimulus_supply xa0_gen.xgen.x_0.x_1.vdd_stimulus      0                    1.0000     0.         0.      dc   
 xa0_gen.xgen.x_0.x_2.vstimulus_supply xa0_gen.xgen.x_0.x_2.vdd_stimulus      0                    1.0000     0.         0.      dc   
 xa0_gen.xgen.x_0.x_3.vstimulus_supply xa0_gen.xgen.x_0.x_3.vdd_stimulus      0                    1.0000     0.         0.      dc   
 xa255_gen.xgen.x_0.x_0.vstimulus_supply xa255_gen.xgen.x_0.x_0.vdd_stimulus      0                    1.0000     0.         0.      dc   
 xa255_gen.xgen.x_0.x_1.vstimulus_supply xa255_gen.xgen.x_0.x_1.vdd_stimulus      0                    1.0000     0.         0.      dc   
 xa255_gen.xgen.x_0.x_2.vstimulus_supply xa255_gen.xgen.x_0.x_2.vdd_stimulus      0                    1.0000     0.         0.      dc   
 xa255_gen.xgen.x_0.x_3.vstimulus_supply xa255_gen.xgen.x_0.x_3.vdd_stimulus      0                    1.0000     0.         0.      dc   


 **** mosfets


 **** BSIM4 Model (Level 54)
  
  
                                                                
 element name        3:m4       3:m3       3:meq       3:mpc2   
 drain               3:sbl_b    0:vdd!     3:sbl       0:vdd!   
 gate                3:sbl      3:sbl_b    0:sapc_b    0:sapc_b 
 source              0:vdd!     3:sbl      3:sbl_b     3:sbl_b  
 bulk                0:vdd!     0:vdd!     0:vdd!      0:vdd!   
 model               0:pmos     0:pmos     0:pmos      0:pmos   
 w eff              78.0000n   78.0000n  166.0000n   166.0000n  
 l eff              29.0000n   29.0000n   29.0000n    29.0000n  
 rd eff              0.         0.         0.          0.       
 rs eff              0.         0.         0.          0.       
 cdsat               7.8700a    7.8700a   15.1073a    15.1073a  
 cssat               7.8700a    7.8700a   15.1073a    15.1073a  
 capbd             133.6681a  133.6681a  223.4243a   223.4243a  
 capbs             116.1033a  116.1033a  188.2947a   188.2947a  
 temp               25.0000    25.0000    25.0000     25.0000   
 aic                                                            
 nf                  1.0000     1.0000     1.0000      1.0000   
 min                 0.         0.         0.          0.       
 rbdb               15.0000    15.0000    15.0000     15.0000   
 rbsb               15.0000    15.0000    15.0000     15.0000   
 rbpb                5.0000     5.0000     5.0000      5.0000   
 rbps               15.0000    15.0000    15.0000     15.0000   
 rbpd               15.0000    15.0000    15.0000     15.0000   
 trnqsmod            0.         0.         0.          0.       
 acnqsmod            0.         0.         0.          0.       
 rbodymod            1.0000     1.0000     1.0000      1.0000   
 rgatemod            1.0000     1.0000     1.0000      1.0000   
 geomod              0.         0.         0.          0.       
 rgeomod             0.         0.         0.          0.       
 delvto              0.         0.         0.          0.       
 mulu0               1.0000     1.0000     1.0000      1.0000   
 delk1               0.         0.         0.          0.       
 delnfct             0.         0.         0.          0.       
 deltox              0.         0.         0.          0.       
 sa                  0.         0.         0.          0.       
 sb                  0.         0.         0.          0.       
 sd                  0.         0.         0.          0.       
 saeff               0.         0.         0.          0.       
 sbeff               0.         0.         0.          0.       
  
  
                                                                 
 element name        3:mpc       3:miso_b    3:miso     3:mmx4_b 
 drain               3:sbl       3:sbl_b     3:sbl      3:cmbl_b 
 gate                0:sapc_b    0:sae       0:sae      0:vdd!   
 source              0:vdd!      3:cmbl_b    3:cmbl     0:vdd!   
 bulk                0:vdd!      0:vdd!      0:vdd!     0:vdd!   
 model               0:pmos      0:pmos      0:pmos     0:pmos   
 w eff             166.0000n   254.0000n   254.0000n  518.0000n  
 l eff              29.0000n    29.0000n    29.0000n   29.0000n  
 rd eff              0.          0.          0.         0.       
 rs eff              0.          0.          0.         0.       
 cdsat              15.1073a    22.3447a    22.3447a   44.0567a  
 cssat              15.1073a    22.3447a    22.3447a   44.0567a  
 capbd             223.4243a   313.1804a   313.1804a  582.4488a  
 capbs             188.2947a   260.4860a   260.4860a  477.0600a  
 temp               25.0000     25.0000     25.0000    25.0000   
 aic                                                             
 nf                  1.0000      1.0000      1.0000     1.0000   
 min                 0.          0.          0.         0.       
 rbdb               15.0000     15.0000     15.0000    15.0000   
 rbsb               15.0000     15.0000     15.0000    15.0000   
 rbpb                5.0000      5.0000      5.0000     5.0000   
 rbps               15.0000     15.0000     15.0000    15.0000   
 rbpd               15.0000     15.0000     15.0000    15.0000   
 trnqsmod            0.          0.          0.         0.       
 acnqsmod            0.          0.          0.         0.       
 rbodymod            1.0000      1.0000      1.0000     1.0000   
 rgatemod            1.0000      1.0000      1.0000     1.0000   
 geomod              0.          0.          0.         0.       
 rgeomod             0.          0.          0.         0.       
 delvto              0.          0.          0.         0.       
 mulu0               1.0000      1.0000      1.0000     1.0000   
 delk1               0.          0.          0.         0.       
 delnfct             0.          0.          0.         0.       
 deltox              0.          0.          0.         0.       
 sa                  0.          0.          0.         0.       
 sb                  0.          0.          0.         0.       
 sd                  0.          0.          0.         0.       
 saeff               0.          0.          0.         0.       
 sbeff               0.          0.          0.         0.       
  
  
                                                                
 element name        3:mmx4     3:mmx3_b    3:mmx3     3:mmx2_b 
 drain               3:cmbl     3:cmbl_b    3:cmbl     3:cmbl_b 
 gate                0:vdd!     0:vdd!      0:vdd!     0:vdd!   
 source              0:vdd!     0:vdd!      0:vdd!     0:vdd!   
 bulk                0:vdd!     0:vdd!      0:vdd!     0:vdd!   
 model               0:pmos     0:pmos      0:pmos     0:pmos   
 w eff             518.0000n  518.0000n   518.0000n  518.0000n  
 l eff              29.0000n   29.0000n    29.0000n   29.0000n  
 rd eff              0.         0.          0.         0.       
 rs eff              0.         0.          0.         0.       
 cdsat              44.0567a   44.0567a    44.0567a   44.0567a  
 cssat              44.0567a   44.0567a    44.0567a   44.0567a  
 capbd             582.4488a  582.4488a   582.4488a  582.4488a  
 capbs             477.0600a  477.0600a   477.0600a  477.0600a  
 temp               25.0000    25.0000     25.0000    25.0000   
 aic                                                            
 nf                  1.0000     1.0000      1.0000     1.0000   
 min                 0.         0.          0.         0.       
 rbdb               15.0000    15.0000     15.0000    15.0000   
 rbsb               15.0000    15.0000     15.0000    15.0000   
 rbpb                5.0000     5.0000      5.0000     5.0000   
 rbps               15.0000    15.0000     15.0000    15.0000   
 rbpd               15.0000    15.0000     15.0000    15.0000   
 trnqsmod            0.         0.          0.         0.       
 acnqsmod            0.         0.          0.         0.       
 rbodymod            1.0000     1.0000      1.0000     1.0000   
 rgatemod            1.0000     1.0000      1.0000     1.0000   
 geomod              0.         0.          0.         0.       
 rgeomod             0.         0.          0.         0.       
 delvto              0.         0.          0.         0.       
 mulu0               1.0000     1.0000      1.0000     1.0000   
 delk1               0.         0.          0.         0.       
 delnfct             0.         0.          0.         0.       
 deltox              0.         0.          0.         0.       
 sa                  0.         0.          0.         0.       
 sb                  0.         0.          0.         0.       
 sd                  0.         0.          0.         0.       
 saeff               0.         0.          0.         0.       
 sbeff               0.         0.          0.         0.       
  
  
                                                                  
 element name        3:mmx2     3:mmx_b      3:mmx        3:mtail 
 drain               3:cmbl     3:cmbl_b     3:cmbl       3:tail  
 gate                0:vdd!     0:sel_b63    0:sel_b63    0:sae   
 source              0:vdd!     0:bl_b63     0:bl63       0:0     
 bulk                0:vdd!     0:vdd!       0:vdd!       0:0     
 model               0:pmos     0:pmos       0:pmos       0:nmos  
 w eff             518.0000n  518.0000n    518.0000n    166.0000n 
 l eff              29.0000n   29.0000n     29.0000n     29.0000n 
 rd eff              0.         0.           0.           0.      
 rs eff              0.         0.           0.           0.      
 cdsat              44.0567a   44.0567a     44.0567a     15.1073a 
 cssat              44.0567a   44.0567a     44.0567a     15.1073a 
 capbd             582.4488a  582.4488a    582.4488a    223.4243a 
 capbs             477.0600a  477.0600a    477.0600a    188.2947a 
 temp               25.0000    25.0000      25.0000      25.0000  
 aic                                                              
 nf                  1.0000     1.0000       1.0000       1.0000  
 min                 0.         0.           0.           0.      
 rbdb               15.0000    15.0000      15.0000      15.0000  
 rbsb               15.0000    15.0000      15.0000      15.0000  
 rbpb                5.0000     5.0000       5.0000       5.0000  
 rbps               15.0000    15.0000      15.0000      15.0000  
 rbpd               15.0000    15.0000      15.0000      15.0000  
 trnqsmod            0.         0.           0.           0.      
 acnqsmod            0.         0.           0.           0.      
 rbodymod            1.0000     1.0000       1.0000       1.0000  
 rgatemod            1.0000     1.0000       1.0000       1.0000  
 geomod              0.         0.           0.           0.      
 rgeomod             0.         0.           0.           0.      
 delvto              0.         0.           0.           0.      
 mulu0               1.0000     1.0000       1.0000       1.0000  
 delk1               0.         0.           0.           0.      
 delnfct             0.         0.           0.           0.      
 deltox              0.         0.           0.           0.      
 sa                  0.         0.           0.           0.      
 sb                  0.         0.           0.           0.      
 sd                  0.         0.           0.           0.      
 saeff               0.         0.           0.           0.      
 sbeff               0.         0.           0.           0.      
  
  
                                                              
 element name        3:m1       3:m2       4:m4       4:m3    
 drain               3:tail     3:sbl_b    4:sbl_b    0:vdd!  
 gate                3:sbl_b    3:sbl      4:sbl      4:sbl_b 
 source              3:sbl      3:tail     0:vdd!     4:sbl   
 bulk                0:0        0:0        0:vdd!     0:vdd!  
 model               0:nmos     0:nmos     0:pmos     0:pmos  
 w eff             122.0000n  122.0000n   78.0000n   78.0000n 
 l eff              29.0000n   29.0000n   29.0000n   29.0000n 
 rd eff              0.         0.         0.         0.      
 rs eff              0.         0.         0.         0.      
 cdsat              11.4887a   11.4887a    7.8700a    7.8700a 
 cssat              11.4887a   11.4887a    7.8700a    7.8700a 
 capbd             178.5462a  178.5462a  133.6681a  133.6681a 
 capbs             152.1990a  152.1990a  116.1033a  116.1033a 
 temp               25.0000    25.0000    25.0000    25.0000  
 aic                                                          
 nf                  1.0000     1.0000     1.0000     1.0000  
 min                 0.         0.         0.         0.      
 rbdb               15.0000    15.0000    15.0000    15.0000  
 rbsb               15.0000    15.0000    15.0000    15.0000  
 rbpb                5.0000     5.0000     5.0000     5.0000  
 rbps               15.0000    15.0000    15.0000    15.0000  
 rbpd               15.0000    15.0000    15.0000    15.0000  
 trnqsmod            0.         0.         0.         0.      
 acnqsmod            0.         0.         0.         0.      
 rbodymod            1.0000     1.0000     1.0000     1.0000  
 rgatemod            1.0000     1.0000     1.0000     1.0000  
 geomod              0.         0.         0.         0.      
 rgeomod             0.         0.         0.         0.      
 delvto              0.         0.         0.         0.      
 mulu0               1.0000     1.0000     1.0000     1.0000  
 delk1               0.         0.         0.         0.      
 delnfct             0.         0.         0.         0.      
 deltox              0.         0.         0.         0.      
 sa                  0.         0.         0.         0.      
 sb                  0.         0.         0.         0.      
 sd                  0.         0.         0.         0.      
 saeff               0.         0.         0.         0.      
 sbeff               0.         0.         0.         0.      
  
  
                                                                  
 element name        4:meq       4:mpc2      4:mpc       4:miso_b 
 drain               4:sbl       0:vdd!      4:sbl       4:sbl_b  
 gate                0:sapc_b    0:sapc_b    0:sapc_b    0:sae    
 source              4:sbl_b     4:sbl_b     0:vdd!      4:cmbl_b 
 bulk                0:vdd!      0:vdd!      0:vdd!      0:vdd!   
 model               0:pmos      0:pmos      0:pmos      0:pmos   
 w eff             166.0000n   166.0000n   166.0000n   254.0000n  
 l eff              29.0000n    29.0000n    29.0000n    29.0000n  
 rd eff              0.          0.          0.          0.       
 rs eff              0.          0.          0.          0.       
 cdsat              15.1073a    15.1073a    15.1073a    22.3447a  
 cssat              15.1073a    15.1073a    15.1073a    22.3447a  
 capbd             223.4243a   223.4243a   223.4243a   313.1804a  
 capbs             188.2947a   188.2947a   188.2947a   260.4860a  
 temp               25.0000     25.0000     25.0000     25.0000   
 aic                                                              
 nf                  1.0000      1.0000      1.0000      1.0000   
 min                 0.          0.          0.          0.       
 rbdb               15.0000     15.0000     15.0000     15.0000   
 rbsb               15.0000     15.0000     15.0000     15.0000   
 rbpb                5.0000      5.0000      5.0000      5.0000   
 rbps               15.0000     15.0000     15.0000     15.0000   
 rbpd               15.0000     15.0000     15.0000     15.0000   
 trnqsmod            0.          0.          0.          0.       
 acnqsmod            0.          0.          0.          0.       
 rbodymod            1.0000      1.0000      1.0000      1.0000   
 rgatemod            1.0000      1.0000      1.0000      1.0000   
 geomod              0.          0.          0.          0.       
 rgeomod             0.          0.          0.          0.       
 delvto              0.          0.          0.          0.       
 mulu0               1.0000      1.0000      1.0000      1.0000   
 delk1               0.          0.          0.          0.       
 delnfct             0.          0.          0.          0.       
 deltox              0.          0.          0.          0.       
 sa                  0.          0.          0.          0.       
 sb                  0.          0.          0.          0.       
 sd                  0.          0.          0.          0.       
 saeff               0.          0.          0.          0.       
 sbeff               0.          0.          0.          0.       
  
  
                                                                
 element name        4:miso     4:mmx4_b    4:mmx4     4:mmx3_b 
 drain               4:sbl      4:cmbl_b    4:cmbl     4:cmbl_b 
 gate                0:sae      0:vdd!      0:vdd!     0:vdd!   
 source              4:cmbl     0:vdd!      0:vdd!     0:vdd!   
 bulk                0:vdd!     0:vdd!      0:vdd!     0:vdd!   
 model               0:pmos     0:pmos      0:pmos     0:pmos   
 w eff             254.0000n  518.0000n   518.0000n  518.0000n  
 l eff              29.0000n   29.0000n    29.0000n   29.0000n  
 rd eff              0.         0.          0.         0.       
 rs eff              0.         0.          0.         0.       
 cdsat              22.3447a   44.0567a    44.0567a   44.0567a  
 cssat              22.3447a   44.0567a    44.0567a   44.0567a  
 capbd             313.1804a  582.4488a   582.4488a  582.4488a  
 capbs             260.4860a  477.0600a   477.0600a  477.0600a  
 temp               25.0000    25.0000     25.0000    25.0000   
 aic                                                            
 nf                  1.0000     1.0000      1.0000     1.0000   
 min                 0.         0.          0.         0.       
 rbdb               15.0000    15.0000     15.0000    15.0000   
 rbsb               15.0000    15.0000     15.0000    15.0000   
 rbpb                5.0000     5.0000      5.0000     5.0000   
 rbps               15.0000    15.0000     15.0000    15.0000   
 rbpd               15.0000    15.0000     15.0000    15.0000   
 trnqsmod            0.         0.          0.         0.       
 acnqsmod            0.         0.          0.         0.       
 rbodymod            1.0000     1.0000      1.0000     1.0000   
 rgatemod            1.0000     1.0000      1.0000     1.0000   
 geomod              0.         0.          0.         0.       
 rgeomod             0.         0.          0.         0.       
 delvto              0.         0.          0.         0.       
 mulu0               1.0000     1.0000      1.0000     1.0000   
 delk1               0.         0.          0.         0.       
 delnfct             0.         0.          0.         0.       
 deltox              0.         0.          0.         0.       
 sa                  0.         0.          0.         0.       
 sb                  0.         0.          0.         0.       
 sd                  0.         0.          0.         0.       
 saeff               0.         0.          0.         0.       
 sbeff               0.         0.          0.         0.       
  
  
                                                                
 element name        4:mmx3     4:mmx2_b    4:mmx2     4:mmx_b  
 drain               4:cmbl     4:cmbl_b    4:cmbl     4:cmbl_b 
 gate                0:vdd!     0:vdd!      0:vdd!     0:sel_b0 
 source              0:vdd!     0:vdd!      0:vdd!     0:bl_b0  
 bulk                0:vdd!     0:vdd!      0:vdd!     0:vdd!   
 model               0:pmos     0:pmos      0:pmos     0:pmos   
 w eff             518.0000n  518.0000n   518.0000n  518.0000n  
 l eff              29.0000n   29.0000n    29.0000n   29.0000n  
 rd eff              0.         0.          0.         0.       
 rs eff              0.         0.          0.         0.       
 cdsat              44.0567a   44.0567a    44.0567a   44.0567a  
 cssat              44.0567a   44.0567a    44.0567a   44.0567a  
 capbd             582.4488a  582.4488a   582.4488a  582.4488a  
 capbs             477.0600a  477.0600a   477.0600a  477.0600a  
 temp               25.0000    25.0000     25.0000    25.0000   
 aic                                                            
 nf                  1.0000     1.0000      1.0000     1.0000   
 min                 0.         0.          0.         0.       
 rbdb               15.0000    15.0000     15.0000    15.0000   
 rbsb               15.0000    15.0000     15.0000    15.0000   
 rbpb                5.0000     5.0000      5.0000     5.0000   
 rbps               15.0000    15.0000     15.0000    15.0000   
 rbpd               15.0000    15.0000     15.0000    15.0000   
 trnqsmod            0.         0.          0.         0.       
 acnqsmod            0.         0.          0.         0.       
 rbodymod            1.0000     1.0000      1.0000     1.0000   
 rgatemod            1.0000     1.0000      1.0000     1.0000   
 geomod              0.         0.          0.         0.       
 rgeomod             0.         0.          0.         0.       
 delvto              0.         0.          0.         0.       
 mulu0               1.0000     1.0000      1.0000     1.0000   
 delk1               0.         0.          0.         0.       
 delnfct             0.         0.          0.         0.       
 deltox              0.         0.          0.         0.       
 sa                  0.         0.          0.         0.       
 sb                  0.         0.          0.         0.       
 sd                  0.         0.          0.         0.       
 saeff               0.         0.          0.         0.       
 sbeff               0.         0.          0.         0.       
  
  
                                                               
 element name        4:mmx       4:mtail    4:m1       4:m2    
 drain               4:cmbl      4:tail     4:tail     4:sbl_b 
 gate                0:sel_b0    0:sae      4:sbl_b    4:sbl   
 source              0:bl0       0:0        4:sbl      4:tail  
 bulk                0:vdd!      0:0        0:0        0:0     
 model               0:pmos      0:nmos     0:nmos     0:nmos  
 w eff             518.0000n   166.0000n  122.0000n  122.0000n 
 l eff              29.0000n    29.0000n   29.0000n   29.0000n 
 rd eff              0.          0.         0.         0.      
 rs eff              0.          0.         0.         0.      
 cdsat              44.0567a    15.1073a   11.4887a   11.4887a 
 cssat              44.0567a    15.1073a   11.4887a   11.4887a 
 capbd             582.4488a   223.4243a  178.5462a  178.5462a 
 capbs             477.0600a   188.2947a  152.1990a  152.1990a 
 temp               25.0000     25.0000    25.0000    25.0000  
 aic                                                           
 nf                  1.0000      1.0000     1.0000     1.0000  
 min                 0.          0.         0.         0.      
 rbdb               15.0000     15.0000    15.0000    15.0000  
 rbsb               15.0000     15.0000    15.0000    15.0000  
 rbpb                5.0000      5.0000     5.0000     5.0000  
 rbps               15.0000     15.0000    15.0000    15.0000  
 rbpd               15.0000     15.0000    15.0000    15.0000  
 trnqsmod            0.          0.         0.         0.      
 acnqsmod            0.          0.         0.         0.      
 rbodymod            1.0000      1.0000     1.0000     1.0000  
 rgatemod            1.0000      1.0000     1.0000     1.0000  
 geomod              0.          0.         0.         0.      
 rgeomod             0.          0.         0.         0.      
 delvto              0.          0.         0.         0.      
 mulu0               1.0000      1.0000     1.0000     1.0000  
 delk1               0.          0.         0.         0.      
 delnfct             0.          0.         0.         0.      
 deltox              0.          0.         0.         0.      
 sa                  0.          0.         0.         0.      
 sb                  0.          0.         0.         0.      
 sd                  0.          0.         0.         0.      
 saeff               0.          0.         0.         0.      
 sbeff               0.          0.         0.         0.      
  
  
                                                               
 element name        8:m5       8:m4       8:m1        8:m0    
 drain               8:bit      8:bit_b    0:bl_b63    0:bl63  
 gate                8:bit_b    8:bit      0:wl255     0:wl255 
 source              0:0        0:0        8:bit_b     8:bit   
 bulk                0:0        0:0        0:0         0:0     
 model               0:nmos     0:nmos     0:nmos      0:nmos  
 w eff             122.0000n  122.0000n   78.0000n    78.0000n 
 l eff              29.0000n   29.0000n   29.0000n    29.0000n 
 rd eff              0.         0.         0.          0.      
 rs eff              0.         0.         0.          0.      
 cdsat              11.4887a   11.4887a    7.8700a     7.8700a 
 cssat              11.4887a   11.4887a    7.8700a     7.8700a 
 capbd             178.5462a  178.5462a  133.6681a   133.6681a 
 capbs             152.1990a  152.1990a  116.1033a   116.1033a 
 temp               25.0000    25.0000    25.0000     25.0000  
 aic                                                           
 nf                  1.0000     1.0000     1.0000      1.0000  
 min                 0.         0.         0.          0.      
 rbdb               15.0000    15.0000    15.0000     15.0000  
 rbsb               15.0000    15.0000    15.0000     15.0000  
 rbpb                5.0000     5.0000     5.0000      5.0000  
 rbps               15.0000    15.0000    15.0000     15.0000  
 rbpd               15.0000    15.0000    15.0000     15.0000  
 trnqsmod            0.         0.         0.          0.      
 acnqsmod            0.         0.         0.          0.      
 rbodymod            1.0000     1.0000     1.0000      1.0000  
 rgatemod            1.0000     1.0000     1.0000      1.0000  
 geomod              0.         0.         0.          0.      
 rgeomod             0.         0.         0.          0.      
 delvto              0.         0.         0.          0.      
 mulu0               1.0000     1.0000     1.0000      1.0000  
 delk1               0.         0.         0.          0.      
 delnfct             0.         0.         0.          0.      
 deltox              0.         0.         0.          0.      
 sa                  0.         0.         0.          0.      
 sb                  0.         0.         0.          0.      
 sd                  0.         0.         0.          0.      
 saeff               0.         0.         0.          0.      
 sbeff               0.         0.         0.          0.      
  
  
                                                              
 element name        8:m2       8:m3       9:m5       9:m4    
 drain               8:bit_b    8:bit      9:bit      9:bit_b 
 gate                8:bit      8:bit_b    9:bit_b    9:bit   
 source              0:vdd!     0:vdd!     0:0        0:0     
 bulk                0:vdd!     0:vdd!     0:0        0:0     
 model               0:pmos     0:pmos     0:nmos     0:nmos  
 w eff              78.0000n   78.0000n   30.9880u   30.9880u 
 l eff              29.0000n   29.0000n   29.0000n   29.0000n 
 rd eff              0.         0.         0.         0.      
 rs eff              0.         0.         0.         0.      
 cdsat               7.8700a    7.8700a    2.9181f    2.9181f 
 cssat               7.8700a    7.8700a    2.9181f    2.9181f 
 capbd             133.6681a  133.6681a  178.5462a  178.5462a 
 capbs             116.1033a  116.1033a  152.1990a  152.1990a 
 temp               25.0000    25.0000    25.0000    25.0000  
 aic                                                          
 nf                  1.0000     1.0000     1.0000     1.0000  
 min                 0.         0.         0.         0.      
 rbdb               15.0000    15.0000    15.0000    15.0000  
 rbsb               15.0000    15.0000    15.0000    15.0000  
 rbpb                5.0000     5.0000     5.0000     5.0000  
 rbps               15.0000    15.0000    15.0000    15.0000  
 rbpd               15.0000    15.0000    15.0000    15.0000  
 trnqsmod            0.         0.         0.         0.      
 acnqsmod            0.         0.         0.         0.      
 rbodymod            1.0000     1.0000     1.0000     1.0000  
 rgatemod            1.0000     1.0000     1.0000     1.0000  
 geomod              0.         0.         0.         0.      
 rgeomod             0.         0.         0.         0.      
 delvto              0.         0.         0.         0.      
 mulu0               1.0000     1.0000     1.0000     1.0000  
 delk1               0.         0.         0.         0.      
 delnfct             0.         0.         0.         0.      
 deltox              0.         0.         0.         0.      
 sa                  0.         0.         0.         0.      
 sb                  0.         0.         0.         0.      
 sd                  0.         0.         0.         0.      
 saeff               0.         0.         0.         0.      
 sbeff               0.         0.         0.         0.      
  
  
                                                              
 element name        9:m1       9:m0       9:m2       9:m3    
 drain               0:net23    0:net24    9:bit_b    9:bit   
 gate                0:wl255    0:wl255    9:bit      9:bit_b 
 source              9:bit_b    9:bit      0:vdd!     0:vdd!  
 bulk                0:0        0:0        0:vdd!     0:vdd!  
 model               0:nmos     0:nmos     0:pmos     0:pmos  
 w eff              19.8120u   19.8120u   19.8120u   19.8120u 
 l eff              29.0000n   29.0000n   29.0000n   29.0000n 
 rd eff              0.         0.         0.         0.      
 rs eff              0.         0.         0.         0.      
 cdsat               1.9990f    1.9990f    1.9990f    1.9990f 
 cssat               1.9990f    1.9990f    1.9990f    1.9990f 
 capbd             133.6681a  133.6681a  133.6681a  133.6681a 
 capbs             116.1033a  116.1033a  116.1033a  116.1033a 
 temp               25.0000    25.0000    25.0000    25.0000  
 aic                                                          
 nf                  1.0000     1.0000     1.0000     1.0000  
 min                 0.         0.         0.         0.      
 rbdb               15.0000    15.0000    15.0000    15.0000  
 rbsb               15.0000    15.0000    15.0000    15.0000  
 rbpb                5.0000     5.0000     5.0000     5.0000  
 rbps               15.0000    15.0000    15.0000    15.0000  
 rbpd               15.0000    15.0000    15.0000    15.0000  
 trnqsmod            0.         0.         0.         0.      
 acnqsmod            0.         0.         0.         0.      
 rbodymod            1.0000     1.0000     1.0000     1.0000  
 rgatemod            1.0000     1.0000     1.0000     1.0000  
 geomod              0.         0.         0.         0.      
 rgeomod             0.         0.         0.         0.      
 delvto              0.         0.         0.         0.      
 mulu0               1.0000     1.0000     1.0000     1.0000  
 delk1               0.         0.         0.         0.      
 delnfct             0.         0.         0.         0.      
 deltox              0.         0.         0.         0.      
 sa                  0.         0.         0.         0.      
 sb                  0.         0.         0.         0.      
 sd                  0.         0.         0.         0.      
 saeff               0.         0.         0.         0.      
 sbeff               0.         0.         0.         0.      
  
  
                                                              
 element name       10:m5      10:m4      10:m1      10:m0    
 drain              10:bit     10:bit_b    0:bl_b0    0:bl0   
 gate               10:bit_b   10:bit      0:wl255    0:wl255 
 source              0:0        0:0       10:bit_b   10:bit   
 bulk                0:0        0:0        0:0        0:0     
 model               0:nmos     0:nmos     0:nmos     0:nmos  
 w eff             122.0000n  122.0000n   78.0000n   78.0000n 
 l eff              29.0000n   29.0000n   29.0000n   29.0000n 
 rd eff              0.         0.         0.         0.      
 rs eff              0.         0.         0.         0.      
 cdsat              11.4887a   11.4887a    7.8700a    7.8700a 
 cssat              11.4887a   11.4887a    7.8700a    7.8700a 
 capbd             178.5462a  178.5462a  133.6681a  133.6681a 
 capbs             152.1990a  152.1990a  116.1033a  116.1033a 
 temp               25.0000    25.0000    25.0000    25.0000  
 aic                                                          
 nf                  1.0000     1.0000     1.0000     1.0000  
 min                 0.         0.         0.         0.      
 rbdb               15.0000    15.0000    15.0000    15.0000  
 rbsb               15.0000    15.0000    15.0000    15.0000  
 rbpb                5.0000     5.0000     5.0000     5.0000  
 rbps               15.0000    15.0000    15.0000    15.0000  
 rbpd               15.0000    15.0000    15.0000    15.0000  
 trnqsmod            0.         0.         0.         0.      
 acnqsmod            0.         0.         0.         0.      
 rbodymod            1.0000     1.0000     1.0000     1.0000  
 rgatemod            1.0000     1.0000     1.0000     1.0000  
 geomod              0.         0.         0.         0.      
 rgeomod             0.         0.         0.         0.      
 delvto              0.         0.         0.         0.      
 mulu0               1.0000     1.0000     1.0000     1.0000  
 delk1               0.         0.         0.         0.      
 delnfct             0.         0.         0.         0.      
 deltox              0.         0.         0.         0.      
 sa                  0.         0.         0.         0.      
 sb                  0.         0.         0.         0.      
 sd                  0.         0.         0.         0.      
 saeff               0.         0.         0.         0.      
 sbeff               0.         0.         0.         0.      
  
  
                                                              
 element name       10:m2      10:m3      11:m5      11:m4    
 drain              10:bit_b   10:bit     11:bit     11:bit_b 
 gate               10:bit     10:bit_b   11:bit_b   11:bit   
 source              0:vdd!     0:vdd!     0:0        0:0     
 bulk                0:vdd!     0:vdd!     0:0        0:0     
 model               0:pmos     0:pmos     0:nmos     0:nmos  
 w eff              78.0000n   78.0000n   30.9880u   30.9880u 
 l eff              29.0000n   29.0000n   29.0000n   29.0000n 
 rd eff              0.         0.         0.         0.      
 rs eff              0.         0.         0.         0.      
 cdsat               7.8700a    7.8700a    2.9181f    2.9181f 
 cssat               7.8700a    7.8700a    2.9181f    2.9181f 
 capbd             133.6681a  133.6681a  178.5462a  178.5462a 
 capbs             116.1033a  116.1033a  152.1990a  152.1990a 
 temp               25.0000    25.0000    25.0000    25.0000  
 aic                                                          
 nf                  1.0000     1.0000     1.0000     1.0000  
 min                 0.         0.         0.         0.      
 rbdb               15.0000    15.0000    15.0000    15.0000  
 rbsb               15.0000    15.0000    15.0000    15.0000  
 rbpb                5.0000     5.0000     5.0000     5.0000  
 rbps               15.0000    15.0000    15.0000    15.0000  
 rbpd               15.0000    15.0000    15.0000    15.0000  
 trnqsmod            0.         0.         0.         0.      
 acnqsmod            0.         0.         0.         0.      
 rbodymod            1.0000     1.0000     1.0000     1.0000  
 rgatemod            1.0000     1.0000     1.0000     1.0000  
 geomod              0.         0.         0.         0.      
 rgeomod             0.         0.         0.         0.      
 delvto              0.         0.         0.         0.      
 mulu0               1.0000     1.0000     1.0000     1.0000  
 delk1               0.         0.         0.         0.      
 delnfct             0.         0.         0.         0.      
 deltox              0.         0.         0.         0.      
 sa                  0.         0.         0.         0.      
 sb                  0.         0.         0.         0.      
 sd                  0.         0.         0.         0.      
 saeff               0.         0.         0.         0.      
 sbeff               0.         0.         0.         0.      
  
  
                                                              
 element name       11:m1      11:m0      11:m2      11:m3    
 drain               0:bl_b0    0:bl0     11:bit_b   11:bit   
 gate                0:0        0:0       11:bit     11:bit_b 
 source             11:bit_b   11:bit      0:vdd!     0:vdd!  
 bulk                0:0        0:0        0:vdd!     0:vdd!  
 model               0:nmos     0:nmos     0:pmos     0:pmos  
 w eff              19.8120u   19.8120u   19.8120u   19.8120u 
 l eff              29.0000n   29.0000n   29.0000n   29.0000n 
 rd eff              0.         0.         0.         0.      
 rs eff              0.         0.         0.         0.      
 cdsat               1.9990f    1.9990f    1.9990f    1.9990f 
 cssat               1.9990f    1.9990f    1.9990f    1.9990f 
 capbd             133.6681a  133.6681a  133.6681a  133.6681a 
 capbs             116.1033a  116.1033a  116.1033a  116.1033a 
 temp               25.0000    25.0000    25.0000    25.0000  
 aic                                                          
 nf                  1.0000     1.0000     1.0000     1.0000  
 min                 0.         0.         0.         0.      
 rbdb               15.0000    15.0000    15.0000    15.0000  
 rbsb               15.0000    15.0000    15.0000    15.0000  
 rbpb                5.0000     5.0000     5.0000     5.0000  
 rbps               15.0000    15.0000    15.0000    15.0000  
 rbpd               15.0000    15.0000    15.0000    15.0000  
 trnqsmod            0.         0.         0.         0.      
 acnqsmod            0.         0.         0.         0.      
 rbodymod            1.0000     1.0000     1.0000     1.0000  
 rgatemod            1.0000     1.0000     1.0000     1.0000  
 geomod              0.         0.         0.         0.      
 rgeomod             0.         0.         0.         0.      
 delvto              0.         0.         0.         0.      
 mulu0               1.0000     1.0000     1.0000     1.0000  
 delk1               0.         0.         0.         0.      
 delnfct             0.         0.         0.         0.      
 deltox              0.         0.         0.         0.      
 sa                  0.         0.         0.         0.      
 sb                  0.         0.         0.         0.      
 sd                  0.         0.         0.         0.      
 saeff               0.         0.         0.         0.      
 sbeff               0.         0.         0.         0.      
  
  
                                                              
 element name       12:m5      12:m4      12:m1      12:m0    
 drain              12:bit     12:bit_b    0:net23    0:net24 
 gate               12:bit_b   12:bit      0:0        0:0     
 source              0:0        0:0       12:bit_b   12:bit   
 bulk                0:0        0:0        0:0        0:0     
 model               0:nmos     0:nmos     0:nmos     0:nmos  
 w eff               7.8710m    7.8710m    5.0322m    5.0322m 
 l eff              29.0000n   29.0000n   29.0000n   29.0000n 
 rd eff              0.         0.         0.         0.      
 rs eff              0.         0.         0.         0.      
 cdsat             741.2026f  741.2026f  507.7401f  507.7401f 
 cssat             741.2026f  741.2026f  507.7401f  507.7401f 
 capbd             178.5462a  178.5462a  133.6681a  133.6681a 
 capbs             152.1990a  152.1990a  116.1033a  116.1033a 
 temp               25.0000    25.0000    25.0000    25.0000  
 aic                                                          
 nf                  1.0000     1.0000     1.0000     1.0000  
 min                 0.         0.         0.         0.      
 rbdb               15.0000    15.0000    15.0000    15.0000  
 rbsb               15.0000    15.0000    15.0000    15.0000  
 rbpb                5.0000     5.0000     5.0000     5.0000  
 rbps               15.0000    15.0000    15.0000    15.0000  
 rbpd               15.0000    15.0000    15.0000    15.0000  
 trnqsmod            0.         0.         0.         0.      
 acnqsmod            0.         0.         0.         0.      
 rbodymod            1.0000     1.0000     1.0000     1.0000  
 rgatemod            1.0000     1.0000     1.0000     1.0000  
 geomod              0.         0.         0.         0.      
 rgeomod             0.         0.         0.         0.      
 delvto              0.         0.         0.         0.      
 mulu0               1.0000     1.0000     1.0000     1.0000  
 delk1               0.         0.         0.         0.      
 delnfct             0.         0.         0.         0.      
 deltox              0.         0.         0.         0.      
 sa                  0.         0.         0.         0.      
 sb                  0.         0.         0.         0.      
 sd                  0.         0.         0.         0.      
 saeff               0.         0.         0.         0.      
 sbeff               0.         0.         0.         0.      
  
  
                                                              
 element name       12:m2      12:m3      13:m5      13:m4    
 drain              12:bit_b   12:bit     13:bit     13:bit_b 
 gate               12:bit     12:bit_b   13:bit_b   13:bit   
 source              0:vdd!     0:vdd!     0:0        0:0     
 bulk                0:vdd!     0:vdd!     0:0        0:0     
 model               0:pmos     0:pmos     0:nmos     0:nmos  
 w eff               5.0322m    5.0322m   30.9880u   30.9880u 
 l eff              29.0000n   29.0000n   29.0000n   29.0000n 
 rd eff              0.         0.         0.         0.      
 rs eff              0.         0.         0.         0.      
 cdsat             507.7401f  507.7401f    2.9181f    2.9181f 
 cssat             507.7401f  507.7401f    2.9181f    2.9181f 
 capbd             133.6681a  133.6681a  178.5462a  178.5462a 
 capbs             116.1033a  116.1033a  152.1990a  152.1990a 
 temp               25.0000    25.0000    25.0000    25.0000  
 aic                                                          
 nf                  1.0000     1.0000     1.0000     1.0000  
 min                 0.         0.         0.         0.      
 rbdb               15.0000    15.0000    15.0000    15.0000  
 rbsb               15.0000    15.0000    15.0000    15.0000  
 rbpb                5.0000     5.0000     5.0000     5.0000  
 rbps               15.0000    15.0000    15.0000    15.0000  
 rbpd               15.0000    15.0000    15.0000    15.0000  
 trnqsmod            0.         0.         0.         0.      
 acnqsmod            0.         0.         0.         0.      
 rbodymod            1.0000     1.0000     1.0000     1.0000  
 rgatemod            1.0000     1.0000     1.0000     1.0000  
 geomod              0.         0.         0.         0.      
 rgeomod             0.         0.         0.         0.      
 delvto              0.         0.         0.         0.      
 mulu0               1.0000     1.0000     1.0000     1.0000  
 delk1               0.         0.         0.         0.      
 delnfct             0.         0.         0.         0.      
 deltox              0.         0.         0.         0.      
 sa                  0.         0.         0.         0.      
 sb                  0.         0.         0.         0.      
 sd                  0.         0.         0.         0.      
 saeff               0.         0.         0.         0.      
 sbeff               0.         0.         0.         0.      
  
  
                                                               
 element name       13:m1       13:m0      13:m2      13:m3    
 drain               0:bl_b63    0:bl63    13:bit_b   13:bit   
 gate                0:0         0:0       13:bit     13:bit_b 
 source             13:bit_b    13:bit      0:vdd!     0:vdd!  
 bulk                0:0         0:0        0:vdd!     0:vdd!  
 model               0:nmos      0:nmos     0:pmos     0:pmos  
 w eff              19.8120u    19.8120u   19.8120u   19.8120u 
 l eff              29.0000n    29.0000n   29.0000n   29.0000n 
 rd eff              0.          0.         0.         0.      
 rs eff              0.          0.         0.         0.      
 cdsat               1.9990f     1.9990f    1.9990f    1.9990f 
 cssat               1.9990f     1.9990f    1.9990f    1.9990f 
 capbd             133.6681a   133.6681a  133.6681a  133.6681a 
 capbs             116.1033a   116.1033a  116.1033a  116.1033a 
 temp               25.0000     25.0000    25.0000    25.0000  
 aic                                                           
 nf                  1.0000      1.0000     1.0000     1.0000  
 min                 0.          0.         0.         0.      
 rbdb               15.0000     15.0000    15.0000    15.0000  
 rbsb               15.0000     15.0000    15.0000    15.0000  
 rbpb                5.0000      5.0000     5.0000     5.0000  
 rbps               15.0000     15.0000    15.0000    15.0000  
 rbpd               15.0000     15.0000    15.0000    15.0000  
 trnqsmod            0.          0.         0.         0.      
 acnqsmod            0.          0.         0.         0.      
 rbodymod            1.0000      1.0000     1.0000     1.0000  
 rgatemod            1.0000      1.0000     1.0000     1.0000  
 geomod              0.          0.         0.         0.      
 rgeomod             0.          0.         0.         0.      
 delvto              0.          0.         0.         0.      
 mulu0               1.0000      1.0000     1.0000     1.0000  
 delk1               0.          0.         0.         0.      
 delnfct             0.          0.         0.         0.      
 deltox              0.          0.         0.         0.      
 sa                  0.          0.         0.         0.      
 sb                  0.          0.         0.         0.      
 sd                  0.          0.         0.         0.      
 saeff               0.          0.         0.         0.      
 sbeff               0.          0.         0.         0.      
  
  
                                                               
 element name       14:m5      14:m4      14:m1       14:m0    
 drain              14:bit     14:bit_b    0:bl_b63    0:bl63  
 gate               14:bit_b   14:bit      0:wl0       0:wl0   
 source              0:0        0:0       14:bit_b    14:bit   
 bulk                0:0        0:0        0:0         0:0     
 model               0:nmos     0:nmos     0:nmos      0:nmos  
 w eff             122.0000n  122.0000n   78.0000n    78.0000n 
 l eff              29.0000n   29.0000n   29.0000n    29.0000n 
 rd eff              0.         0.         0.          0.      
 rs eff              0.         0.         0.          0.      
 cdsat              11.4887a   11.4887a    7.8700a     7.8700a 
 cssat              11.4887a   11.4887a    7.8700a     7.8700a 
 capbd             178.5462a  178.5462a  133.6681a   133.6681a 
 capbs             152.1990a  152.1990a  116.1033a   116.1033a 
 temp               25.0000    25.0000    25.0000     25.0000  
 aic                                                           
 nf                  1.0000     1.0000     1.0000      1.0000  
 min                 0.         0.         0.          0.      
 rbdb               15.0000    15.0000    15.0000     15.0000  
 rbsb               15.0000    15.0000    15.0000     15.0000  
 rbpb                5.0000     5.0000     5.0000      5.0000  
 rbps               15.0000    15.0000    15.0000     15.0000  
 rbpd               15.0000    15.0000    15.0000     15.0000  
 trnqsmod            0.         0.         0.          0.      
 acnqsmod            0.         0.         0.          0.      
 rbodymod            1.0000     1.0000     1.0000      1.0000  
 rgatemod            1.0000     1.0000     1.0000      1.0000  
 geomod              0.         0.         0.          0.      
 rgeomod             0.         0.         0.          0.      
 delvto              0.         0.         0.          0.      
 mulu0               1.0000     1.0000     1.0000      1.0000  
 delk1               0.         0.         0.          0.      
 delnfct             0.         0.         0.          0.      
 deltox              0.         0.         0.          0.      
 sa                  0.         0.         0.          0.      
 sb                  0.         0.         0.          0.      
 sd                  0.         0.         0.          0.      
 saeff               0.         0.         0.          0.      
 sbeff               0.         0.         0.          0.      
  
  
                                                              
 element name       14:m2      14:m3      15:m5      15:m4    
 drain              14:bit_b   14:bit     15:bit     15:bit_b 
 gate               14:bit     14:bit_b   15:bit_b   15:bit   
 source              0:vdd!     0:vdd!     0:0        0:0     
 bulk                0:vdd!     0:vdd!     0:0        0:0     
 model               0:pmos     0:pmos     0:nmos     0:nmos  
 w eff              78.0000n   78.0000n   30.9880u   30.9880u 
 l eff              29.0000n   29.0000n   29.0000n   29.0000n 
 rd eff              0.         0.         0.         0.      
 rs eff              0.         0.         0.         0.      
 cdsat               7.8700a    7.8700a    2.9181f    2.9181f 
 cssat               7.8700a    7.8700a    2.9181f    2.9181f 
 capbd             133.6681a  133.6681a  178.5462a  178.5462a 
 capbs             116.1033a  116.1033a  152.1990a  152.1990a 
 temp               25.0000    25.0000    25.0000    25.0000  
 aic                                                          
 nf                  1.0000     1.0000     1.0000     1.0000  
 min                 0.         0.         0.         0.      
 rbdb               15.0000    15.0000    15.0000    15.0000  
 rbsb               15.0000    15.0000    15.0000    15.0000  
 rbpb                5.0000     5.0000     5.0000     5.0000  
 rbps               15.0000    15.0000    15.0000    15.0000  
 rbpd               15.0000    15.0000    15.0000    15.0000  
 trnqsmod            0.         0.         0.         0.      
 acnqsmod            0.         0.         0.         0.      
 rbodymod            1.0000     1.0000     1.0000     1.0000  
 rgatemod            1.0000     1.0000     1.0000     1.0000  
 geomod              0.         0.         0.         0.      
 rgeomod             0.         0.         0.         0.      
 delvto              0.         0.         0.         0.      
 mulu0               1.0000     1.0000     1.0000     1.0000  
 delk1               0.         0.         0.         0.      
 delnfct             0.         0.         0.         0.      
 deltox              0.         0.         0.         0.      
 sa                  0.         0.         0.         0.      
 sb                  0.         0.         0.         0.      
 sd                  0.         0.         0.         0.      
 saeff               0.         0.         0.         0.      
 sbeff               0.         0.         0.         0.      
  
  
                                                              
[...]
 model     0:pmos      0:nmos      0:pmos      0:nmos      0:pmos    
 region        Cutoff      Linear      Cutoff      Linear      Cutoff
  id        -16.1300n    17.2851n   -16.1292n    17.4757n   -16.1300n
  ibs      -9.400e-23   1.155e-24  -9.400e-23   1.156e-24  -9.400e-23
  ibd         1.0000p   -21.1651a     1.0000p   -21.3984a     1.0000p
  vgs        -7.0590u   999.9929m    -5.1790u   999.9948m    -7.0590u
  vds      -999.9789m    21.1459u  -999.9786m    21.3790u  -999.9789m
  vbs         0.          0.          0.          0.          0.     
  vth      -225.6988m   370.5942m  -225.6988m   370.5942m  -225.6988m
  vdsat     -46.2015m   337.5727m   -46.2015m   337.5735m   -46.2015m
  vod       225.6917m   629.3987m   225.6936m   629.4006m   225.6917m
  beta        1.6975m     4.0798m     1.6975m     4.0798m     1.6975m
  gam eff   394.0000m   441.0000m   394.0000m   441.0000m   394.0000m
  gm        409.0944n     6.6860n   409.0751n     6.7597n   409.0944n
  gds        39.2330n   817.4015u    39.2312n   817.4017u    39.2330n
  gmb        91.8873n     3.5210n    91.8831n     3.5598n    91.8873n
  cdtot     666.2563a   479.6514a   666.2563a   479.6513a   666.2563a
  cgtot     468.6349a   321.7952a   468.6345a   321.7952a   468.6349a
  cstot     765.3125a   316.6876a   765.3121a   316.6876a   765.3125a
  cbtot       1.1352f   485.6762a     1.1352f   485.6762a     1.1352f
  cgs       233.0791a   175.4780a   233.0786a   175.4780a   233.0791a
  cgd       149.4580a   148.8145a   149.4580a   148.8145a   149.4580a



 subckt    xdecoder.x  xdecoder.x  xdecoder.x  xdecoder.x  xdecoder.x
 element  70:m2       71:m10      71:m9       71:m1       71:m7      
 model     0:nmos      0:nmos      0:nmos      0:nmos      0:pmos    
 region        Linear      Cutoff      Linear      Cutoff      Linear
  id         17.2851n   793.8574p   460.9821p   128.1061p    -1.2431n
  ibs       1.155e-24   9.572e-24  -102.0639f  -102.0650f  -5.843e-25
  ibd       -21.1651a  -102.0639f  -102.0650f    -1.0000p     7.0640a
  vgs       999.9929m    19.0569u   897.9494m  -102.0327m  -999.9809m
  vds        21.1459u   102.0506m     1.1107u   897.9412m    -7.0590u
  vbs         0.          0.       -102.0506m  -102.0518m     0.     
  vth       370.5942m   363.6333m   394.6249m   333.3699m  -310.7628m
  vdsat     337.5727m    40.1926m   282.4690m    40.0336m  -503.9527m
  vod       629.3987m  -363.6143m   503.3244m  -435.4026m  -689.2182m
  beta        4.0798m     2.8303m     2.2422m     2.9389m   317.5726u
  gam eff   441.0000m   441.0000m   441.0000m   441.0000m   394.0000m
  gm          6.6860n    20.2921n   286.1677p     3.3600n     1.0548n
  gds       817.4015u     2.0588n   415.0424u   250.7104p   176.0953u
  gmb         3.5210n     5.9860n   122.1894p   965.3804p   424.6704p
  cdtot     479.6514a   187.2855a   272.0551a   149.9389a   378.1360a
  cgtot     321.7952a    93.4121a   170.3267a    79.1135a   254.9589a
  cstot     316.6876a   174.4336a   189.0013a   165.9798a   257.9505a
  cbtot     485.6762a   303.4230a   298.3877a   271.9212a   393.4431a
  cgs       175.4780a    40.0143a    93.0870a    35.8409a   143.0528a
  cgd       148.8145a    35.8403a    77.6982a    25.7150a   112.5626a



 subckt    xdecoder.x  xdecoder.x  xdecoder.x  xdecoder.x  xdecoder.x
 element  71:m6       71:m0       72:m10      72:m9       72:m1      
 model     0:pmos      0:pmos      0:nmos      0:nmos      0:nmos    
 region        Cutoff      Linear      Cutoff      Cutoff      Cutoff
  id        -78.0124f    -1.2431n   363.4846p   367.0395p   381.2310p
  ibs      -7.777e-28  -5.843e-25   1.670e-24   -17.8063f   -71.3988f
  ibd         7.0640a     7.0640a   -17.8063f   -71.3988f    -1.0000p
  vgs         0.       -999.9809m    19.0569u   -17.7996m   -71.3671m
  vds        -7.0590u    -7.0590u    17.7996m    53.5866m   928.6087m
  vbs         0.          0.          0.        -17.7996m   -71.3862m
  vth      -310.7628m  -310.7628m   369.3813m   371.2234m   324.1880m
  vdsat     -46.2174m  -503.9527m    40.2304m    40.2520m    39.9601m
  vod       310.7628m  -689.2182m  -369.3622m  -389.0230m  -395.5551m
  beta      367.4760u   317.5726u     2.8099m     2.8034m     2.9723m
  gam eff   394.0000m   394.0000m   441.0000m   441.0000m   441.0000m
  gm          2.0488p     1.0548n     9.2988n     9.4472n     9.9131n
  gds        11.0507n   176.0953u    15.1962n     2.2873n   739.7819p
  gmb       491.6550f   424.6704p     2.7643n     2.7980n     2.8395n
  cdtot     258.8313a   378.1360a   194.7890a   189.9371a   149.9389a
  cgtot     136.6815a   254.9589a    96.8560a    93.9058a    80.3379a
  cstot     228.0318a   257.9505a   174.4335a   172.9161a   168.4330a
  cbtot     393.7698a   393.4431a   307.4825a   304.0637a   273.1499a
  cgs        57.4452a   143.0528a    40.0142a    39.2843a    37.0653a
  cgd        57.4428a   112.5626a    39.2842a    37.0637a    25.7149a



 subckt    xdecoder.x  xdecoder.x  xdecoder.x  xdecoder.x  xdecoder.x
 element  72:m7       72:m6       72:m0       73:m10      73:m9      
 model     0:pmos      0:pmos      0:pmos      0:nmos      0:nmos    
 region        Linear      Linear      Linear      Cutoff      Linear
  id       -912.0035p  -912.0182p  -912.0035p   793.8574p   460.9821p
  ibs      -5.841e-25  -5.843e-25  -5.841e-25   9.572e-24  -102.0639f
  ibd         5.1827a     5.1827a     5.1827a  -102.0639f  -102.0650f
  vgs      -999.9809m    -1.0000   -999.9809m    19.0569u   897.9494m
  vds        -5.1790u    -5.1790u    -5.1790u   102.0506m     1.1107u
  vbs         0.          0.          0.          0.       -102.0506m
  vth      -310.7629m  -310.7629m  -310.7629m   363.6333m   394.6249m
  vdsat    -503.9526m  -503.9637m  -503.9526m    40.1926m   282.4690m
  vod      -689.2180m  -689.2371m  -689.2180m  -363.6143m   503.3244m
  beta      317.5725u   317.5699u   317.5725u     2.8303m     2.2422m
  gam eff   394.0000m   394.0000m   394.0000m   441.0000m   441.0000m
  gm        773.8599p   773.8389p   773.8599p    20.2921n   286.1677p
  gds       176.0959u   176.0987u   176.0959u     2.0588n   415.0424u
  gmb       311.5699p   311.5667p   311.5699p     5.9860n   122.1894p
  cdtot     378.1366a   378.1371a   378.1366a   187.2855a   272.0551a
  cgtot     254.9589a   254.9593a   254.9589a    93.4121a   170.3267a
  cstot     257.9501a   257.9501a   257.9501a   174.4336a   189.0013a
  cbtot     393.4433a   393.4432a   393.4433a   303.4230a   298.3877a
  cgs       143.0526a   143.0528a   143.0526a    40.0143a    93.0870a
  cgd       112.5629a   112.5631a   112.5629a    35.8403a    77.6982a



 subckt    xdecoder.x  xdecoder.x  xdecoder.x  xdecoder.x  xdecoder.x
 element  73:m1       73:m7       73:m6       73:m0       74:m10     
 model     0:nmos      0:pmos      0:pmos      0:pmos      0:nmos    
 region        Cutoff      Linear      Cutoff      Linear      Cutoff
  id        128.1061p    -1.2431n   -78.0124f    -1.2431n   363.4846p
  ibs      -102.0650f  -5.843e-25  -7.777e-28  -5.843e-25   1.670e-24
  ibd        -1.0000p     7.0640a     7.0640a     7.0640a   -17.8063f
  vgs      -102.0327m  -999.9809m     0.       -999.9809m    19.0569u
  vds       897.9412m    -7.0590u    -7.0590u    -7.0590u    17.7996m
  vbs      -102.0518m     0.          0.          0.          0.     
  vth       333.3699m  -310.7628m  -310.7628m  -310.7628m   369.3813m
  vdsat      40.0336m  -503.9527m   -46.2174m  -503.9527m    40.2304m
  vod      -435.4026m  -689.2182m   310.7628m  -689.2182m  -369.3622m
  beta        2.9389m   317.5726u   367.4760u   317.5726u     2.8099m
  gam eff   441.0000m   394.0000m   394.0000m   394.0000m   441.0000m
  gm          3.3600n     1.0548n     2.0488p     1.0548n     9.2988n
  gds       250.7104p   176.0953u    11.0507n   176.0953u    15.1962n
  gmb       965.3804p   424.6704p   491.6550f   424.6704p     2.7643n
  cdtot     149.9389a   378.1360a   258.8313a   378.1360a   194.7890a
  cgtot      79.1135a   254.9589a   136.6815a   254.9589a    96.8560a
  cstot     165.9798a   257.9505a   228.0318a   257.9505a   174.4335a
  cbtot     271.9212a   393.4431a   393.7698a   393.4431a   307.4825a
  cgs        35.8409a   143.0528a    57.4452a   143.0528a    40.0142a
  cgd        25.7150a   112.5626a    57.4428a   112.5626a    39.2842a



 subckt    xdecoder.x  xdecoder.x  xdecoder.x  xdecoder.x  xdecoder.x
 element  74:m9       74:m1       74:m7       74:m6       74:m0      
 model     0:nmos      0:nmos      0:pmos      0:pmos      0:pmos    
 region        Cutoff      Cutoff      Linear      Linear      Linear
  id        367.0395p   381.2310p  -912.0035p  -912.0182p  -912.0035p
  ibs       -17.8063f   -71.3988f  -5.841e-25  -5.843e-25  -5.841e-25
  ibd       -71.3988f    -1.0000p     5.1827a     5.1827a     5.1827a
  vgs       -17.7996m   -71.3671m  -999.9809m    -1.0000   -999.9809m
  vds        53.5866m   928.6087m    -5.1790u    -5.1790u    -5.1790u
  vbs       -17.7996m   -71.3862m     0.          0.          0.     
  vth       371.2234m   324.1880m  -310.7629m  -310.7629m  -310.7629m
  vdsat      40.2520m    39.9601m  -503.9526m  -503.9637m  -503.9526m
  vod      -389.0230m  -395.5551m  -689.2180m  -689.2371m  -689.2180m
  beta        2.8034m     2.9723m   317.5725u   317.5699u   317.5725u
  gam eff   441.0000m   441.0000m   394.0000m   394.0000m   394.0000m
  gm          9.4472n     9.9131n   773.8599p   773.8389p   773.8599p
  gds         2.2873n   739.7819p   176.0959u   176.0987u   176.0959u
  gmb         2.7980n     2.8395n   311.5699p   311.5667p   311.5699p
  cdtot     189.9371a   149.9389a   378.1366a   378.1371a   378.1366a
  cgtot      93.9058a    80.3379a   254.9589a   254.9593a   254.9589a
  cstot     172.9161a   168.4330a   257.9501a   257.9501a   257.9501a
  cbtot     304.0637a   273.1499a   393.4433a   393.4432a   393.4433a
  cgs        39.2843a    37.0653a   143.0526a   143.0528a   143.0526a
  cgd        37.0637a    25.7149a   112.5629a   112.5631a   112.5629a



 subckt    xclk_gen.x  xclk_gen.x  xclk_gen.x  xclk_gen.x  xclk_gen.x
 element  78:m_0      78:m_1      79:m_0      79:m_1      80:m_0     
 model     0:nmos      0:pmos      0:nmos      0:pmos      0:nmos    
 region        Cutoff      Linear      Linear      Cutoff      Cutoff
  id          7.6210n   -16.1602n    55.2586n   -57.2549n   121.9951n
  ibs       9.382e-23  -2.106e-24   4.079e-24  -3.759e-22   1.501e-21
  ibd      -999.9953f    25.7988a   -76.2895a     4.0002p   -15.9999p
  vgs         0.         -1.0000    999.9743m   -25.7378u    19.0569u
  vds       999.9743m   -25.7378u    19.0569u  -999.9809m   999.9743m
  vbs         0.          0.          0.          0.          0.     
  vth       302.3784m  -310.7612m   370.5944m  -225.6986m   302.3784m
  vdsat      39.8318m  -504.5937m   337.0861m   -46.2016m    39.8318m
  vod      -302.3784m  -689.2388m   629.3799m   225.6729m  -302.3594m
  beta        5.0666m     1.1424m    14.4096m     6.0227m    81.0664m
  gam eff   441.0000m   394.0000m   441.0000m   394.0000m   441.0000m
  gm        191.9182n    13.5943n    21.4625n     1.4521u     3.0721u
  gds        14.3449n   627.8609u     2.8996m   139.2598n   229.6264n
  gmb        54.4515n     5.4724n    11.3043n   326.1548n   871.6264n
  cdtot     220.4434a     1.2194f     1.7195f     2.3833f     3.5271f
  cgtot     137.7687a   915.2162a     1.1369f     1.6630f     2.2043f
  cstot     255.0966a   792.2894a     1.1430f     2.7389f     4.0816f
  cbtot     395.0850a     1.1369f     1.7655f     4.0710f     6.3214f
  cgs        66.4274a   514.6014a   619.7720a   826.9677a     1.0629f
  cgd        42.6865a   404.9047a   525.6005a   530.2694a   682.9857a



 subckt    xclk_gen.x  xclk_gen.x  xclk_gen.x  xa0_gen.xg  xa0_gen.xg
 element  80:m_1      81:m_0      81:m_1      82:m_0      82:m_1     
 model     0:pmos      0:nmos      0:pmos      0:nmos      0:pmos    
 region        Linear      Linear      Cutoff      Cutoff      Linear
  id       -258.6222n   992.8996n  -916.0730n     7.6210n   -16.1602n
  ibs      -3.368e-23   6.529e-23  -6.014e-21   9.382e-23  -2.106e-24
  ibd       412.8823a    -1.3708f    64.0026p  -999.9953f    25.7988a
  vgs      -999.9809m   999.9743m   -25.7442u     0.         -1.0000 
  vds       -25.7442u    21.4012u  -999.9786m   999.9743m   -25.7378u
  vbs         0.          0.          0.          0.          0.     
  vth      -310.7612m   370.5942m  -225.6988m   302.3784m  -310.7612m
  vdsat    -504.5825m   337.0862m   -46.2016m    39.8318m  -504.5937m
  vod      -689.2197m   629.3800m   225.6730m  -302.3784m  -689.2388m
  beta       18.2781m   230.5530m    96.3633m     5.0666m     1.1424m
  gam eff   394.0000m   441.0000m   394.0000m   441.0000m   394.0000m
  gm        217.5677n   385.6463n    23.2335u   191.9182n    13.5943n
  gds        10.0456m    46.3934m     2.2281u    14.3449n   627.8609u
  gmb        87.5809n   203.1200n     5.2184u    54.4515n     5.4724n
  cdtot      19.5104f    27.5114f    38.1333f   220.4434a     1.2194f
  cgtot      14.6434f    18.1904f    26.6086f   137.7687a   915.2162a
  cstot      12.6766f    18.2873f    43.8225f   255.0966a   792.2894a
  cbtot      18.1907f    28.2486f    65.1361f   395.0850a     1.1369f
  cgs         8.2336f     9.9164f    13.2315f    66.4274a   514.6014a
  cgd         6.4785f     8.4096f     8.4843f    42.6865a   404.9047a



 subckt    xa0_gen.xg  xa0_gen.xg  xa0_gen.xg  xa0_gen.xg  xa0_gen.xg
 element  83:m_0      83:m_1      84:m_0      84:m_1      85:m_0     
 model     0:nmos      0:pmos      0:nmos      0:pmos      0:nmos    
 region        Linear      Cutoff      Cutoff      Linear      Linear
  id         55.2586n   -57.2549n   121.9951n  -258.6222n   992.8996n
  ibs       4.079e-24  -3.759e-22   1.501e-21  -3.368e-23   6.529e-23
  ibd       -76.2895a     4.0002p   -15.9999p   412.8823a    -1.3708f
  vgs       999.9743m   -25.7378u    19.0569u  -999.9809m   999.9743m
  vds        19.0569u  -999.9809m   999.9743m   -25.7442u    21.4012u
  vbs         0.          0.          0.          0.          0.     
  vth       370.5944m  -225.6986m   302.3784m  -310.7612m   370.5942m
  vdsat     337.0861m   -46.2016m    39.8318m  -504.5825m   337.0862m
  vod       629.3799m   225.6729m  -302.3594m  -689.2197m   629.3800m
  beta       14.4096m     6.0227m    81.0664m    18.2781m   230.5530m
  gam eff   441.0000m   394.0000m   441.0000m   394.0000m   441.0000m
  gm         21.4625n     1.4521u     3.0721u   217.5677n   385.6463n
  gds         2.8996m   139.2598n   229.6264n    10.0456m    46.3934m
  gmb        11.3043n   326.1548n   871.6264n    87.5809n   203.1200n
  cdtot       1.7195f     2.3833f     3.5271f    19.5104f    27.5114f
  cgtot       1.1369f     1.6630f     2.2043f    14.6434f    18.1904f
  cstot       1.1430f     2.7389f     4.0816f    12.6766f    18.2873f
  cbtot       1.7655f     4.0710f     6.3214f    18.1907f    28.2486f
  cgs       619.7720a   826.9677a     1.0629f     8.2336f     9.9164f
  cgd       525.6005a   530.2694a   682.9857a     6.4785f     8.4096f



 subckt    xa0_gen.xg  xa255_gen.  xa255_gen.  xa255_gen.  xa255_gen.
 element  85:m_1      86:m_0      86:m_1      87:m_0      87:m_1     
 model     0:pmos      0:nmos      0:pmos      0:nmos      0:pmos    
 region        Cutoff      Cutoff      Linear      Linear      Cutoff
  id       -916.0730n     7.6210n   -16.1602n    55.2586n   -57.2549n
  ibs      -6.014e-21   9.382e-23  -2.106e-24   4.079e-24  -3.759e-22
  ibd        64.0026p  -999.9953f    25.7988a   -76.2895a     4.0002p
  vgs       -25.7442u     0.         -1.0000    999.9743m   -25.7378u
  vds      -999.9786m   999.9743m   -25.7378u    19.0569u  -999.9809m
  vbs         0.          0.          0.          0.          0.     
  vth      -225.6988m   302.3784m  -310.7612m   370.5944m  -225.6986m
  vdsat     -46.2016m    39.8318m  -504.5937m   337.0861m   -46.2016m
  vod       225.6730m  -302.3784m  -689.2388m   629.3799m   225.6729m
  beta       96.3633m     5.0666m     1.1424m    14.4096m     6.0227m
  gam eff   394.0000m   441.0000m   394.0000m   441.0000m   394.0000m
  gm         23.2335u   191.9182n    13.5943n    21.4625n     1.4521u
  gds         2.2281u    14.3449n   627.8609u     2.8996m   139.2598n
  gmb         5.2184u    54.4515n     5.4724n    11.3043n   326.1548n
  cdtot      38.1333f   220.4434a     1.2194f     1.7195f     2.3833f
  cgtot      26.6086f   137.7687a   915.2162a     1.1369f     1.6630f
  cstot      43.8225f   255.0966a   792.2894a     1.1430f     2.7389f
  cbtot      65.1361f   395.0850a     1.1369f     1.7655f     4.0710f
  cgs        13.2315f    66.4274a   514.6014a   619.7720a   826.9677a
  cgd         8.4843f    42.6865a   404.9047a   525.6005a   530.2694a



 subckt    xa255_gen.  xa255_gen.  xa255_gen.  xa255_gen.
 element  88:m_0      88:m_1      89:m_0      89:m_1     
 model     0:nmos      0:pmos      0:nmos      0:pmos    
 region        Cutoff      Linear      Linear      Cutoff
  id        121.9951n  -258.6222n   992.8996n  -916.0730n
  ibs       1.501e-21  -3.368e-23   6.529e-23  -6.014e-21
  ibd       -15.9999p   412.8823a    -1.3708f    64.0026p
  vgs        19.0569u  -999.9809m   999.9743m   -25.7442u
  vds       999.9743m   -25.7442u    21.4012u  -999.9786m
  vbs         0.          0.          0.          0.     
  vth       302.3784m  -310.7612m   370.5942m  -225.6988m
  vdsat      39.8318m  -504.5825m   337.0862m   -46.2016m
  vod      -302.3594m  -689.2197m   629.3800m   225.6730m
  beta       81.0664m    18.2781m   230.5530m    96.3633m
  gam eff   441.0000m   394.0000m   441.0000m   394.0000m
  gm          3.0721u   217.5677n   385.6463n    23.2335u
  gds       229.6264n    10.0456m    46.3934m     2.2281u
  gmb       871.6264n    87.5809n   203.1200n     5.2184u
  cdtot       3.5271f    19.5104f    27.5114f    38.1333f
  cgtot       2.2043f    14.6434f    18.1904f    26.6086f
  cstot       4.0816f    12.6766f    18.2873f    43.8225f
  cbtot       6.3214f    18.1907f    28.2486f    65.1361f
  cgs         1.0629f     8.2336f     9.9164f    13.2315f
  cgd       682.9857a     6.4785f     8.4096f     8.4843f




          ***** job concluded
1****** HSPICE -- F-2011.09-SP2 32-BIT (Feb 27 2012) linux ******               
 ******  
 part 2

  ******  job statistics summary tnom=  25.000 temp=  27.000 *****
  
  
 ******  Machine Information  ******
 CPU:
 model name	: Intel(R) Core(TM)2 Duo CPU     E8500  @ 3.16GHz
 cpu MHz	: 3158.841
  
 OS:
 Linux version 3.2.0-30-generic (buildd@batsu) (gcc version 4.6.3 (Ubuntu/Linaro
  4.6.3-1ubuntu5) ) #48-Ubuntu SMP Fri Aug 24 16:52:48 UTC 2012


  ******  HSPICE Threads Information  ******

  Command Line Threads Count :     1
  Available CPU Count        :     2
  Actual Threads Count       :     1


  ******  Circuit Statistics  ******
  # nodes       =    1182 # elements   =     330
  # resistors   =       1 # capacitors =      30 # inductors   =       0
  # mutual_inds =       0 # vccs       =       0 # vcvs        =       3
  # cccs        =       6 # ccvs       =       0 # volt_srcs   =      31
  # curr_srcs   =       0 # diodes     =       0 # bjts        =       0
  # jfets       =       0 # mosfets    =     259 # U elements  =       0
  # T elements  =       0 # W elements =       0 # B elements  =       0
  # S elements  =       0 # P elements =       0 # va device   =       0
  # vector_srcs =       0


  ******  Runtime Statistics (seconds)  ******

  analysis           time    # points   tot. iter  conv.iter
  op point           0.92           1         591
  transient         13.06       33334       31479        4870 rev=       742
  readin             0.00
  errchk             0.04
  setup              0.02
  output             0.00


           peak memory used         91.51 megabytes
           total cpu time           14.06 seconds
           total elapsed time       14.73 seconds
           job started at     11:15:48 03/05/2013
           job ended   at     11:16:03 03/05/2013


 lic: Release hspice token(s) 
