Using: /usr/class/ee/synopsys/hspice/F-2011.09-SP2/hspice/linux/hspice part2_decoder_Blocked_Slowed_Switched_WR_Voltages.hsp
 ****** HSPICE -- F-2011.09-SP2 32-BIT (Feb 27 2012) linux ******               
  Copyright (C) 2011 Synopsys, Inc. All Rights Reserved.                        
  Unpublished-rights reserved under US copyright laws.
  This program is protected by law and is subject to the
  terms and conditions of the license agreement from Synopsys.
  Use of this program is your acceptance to be bound by the
  license agreement. HSPICE is the trademark of Synopsys, Inc.
  Input File: part2_decoder_Blocked_Slowed_Switched_WR_Voltages.hsp             
  Command line options: part2_decoder_Blocked_Slowed_Switched_WR_Voltages.hsp
 lic:  
 lic: FLEXlm: v10.8 
 lic: USER:   nighting             HOSTNAME: myth6 
 lic: HOSTID: 001ec92fa005         PID:      29209 
 lic: Using FLEXlm license file: 
 lic: 27000@cadlic0.stanford.edu 
 lic: Checkout 1 hspice 
 lic: License/Maintenance for hspice will expire on 16-nov-2013/2013.03 
 lic: 2(in_use)/100(total) FLOATING license(s) on SERVER cadlic0.stanford.edu 
 lic:   
 Init: read install configuration file: /usr/class/ee/synopsys/hspice/F-2011.09-SP2/hspice/meta.cfg

 **warning**  runlvl smaller than 5, reset to 5  when accurate turned on
 scientific notation:
 a=10**-18  f=10**-15  p=10**-12  n=10**-9  u=10**-6
 m=10**-3   k=10**3    x=10**6    g=10**9 

 **warning**  runlvl smaller than 5, reset to 5  when accurate turned on
1****** HSPICE -- F-2011.09-SP2 32-BIT (Feb 27 2012) linux ******               
 ******  
 part 2

  ******  circuit name directory
 circuit number to circuit name directory
   number circuitname                     definition         multiplier
        0 main circuit
        1 xsense63_in.                    blocked_sense_inputs
                                                                 1.00 
        2 xsense0_in.                     blocked_sense_inputs
                                                                 1.00 
        3 xblock_decoder.                 block_decoder      1.00 
        4 xarray.                         array_blocked_wordline_4
                                                                 1.00 
        5 xdecoder.                       decoder            1.00 
        6 xsense63.                       sense              1.00 
        7 xsense0.                        sense              1.00 
        8 xvwl_mux.                       vwl_mux_array      1.00 
        9 xclk_gen.                       clk_gen            1.00 
       10 xa0_gen.                        a0_gen             1.00 
       11 xa255_gen.                      a255_gen           1.00 
       12 xsense63_in.xu5.                inv_pcell_0        1.00 
       13 xsense63_in.xu0.                inv_pcell_0        1.00 
       14 xsense63_in.xu3.                nand_pcell_1       1.00 
       15 xsense63_in.xu2.                nand_pcell_1       1.00 
       16 xsense0_in.xu5.                 inv_pcell_0        1.00 
       17 xsense0_in.xu0.                 inv_pcell_0        1.00 
       18 xsense0_in.xu3.                 nand_pcell_1       1.00 
       19 xsense0_in.xu2.                 nand_pcell_1       1.00 
       20 xblock_decoder.xu13.            nand_pcell_3       1.00 
       21 xblock_decoder.xu12.            nand_pcell_3       1.00 
       22 xblock_decoder.xu11.            nand_pcell_3       1.00 
       23 xblock_decoder.xu10.            nand_pcell_3       1.00 
       24 xblock_decoder.xu8.             nand_pcell_3       1.00 
       25 xblock_decoder.xu3.             nand_pcell_3       1.00 
       26 xblock_decoder.xu4.             nand_pcell_3       1.00 
       27 xblock_decoder.xu7.             nand_pcell_3       1.00 
       28 xarray.xmctr.                   mc                 1.00 
       29 xarray.xmcmr.                   mc               254.00 
       30 xarray.xmcbr.                   mc                 1.00 
       31 xarray.xmctb3dum.               mc                63.00 
       32 xarray.xmcmb3dum.               mc                16.00k
       33 xarray.xmcbb3dum.               mc                63.00 
       34 xarray.xmcbb2dum.               mc                64.00 
       35 xarray.xmctb2dum.               mc                64.00 
       36 xarray.xmcmb2dum.               mc                16.26k
       37 xarray.xmctb1dum.               mc                64.00 
       38 xarray.xmcbb0dum.               mc                63.00 
       39 xarray.xmcbl.                   mc                 1.00 
       40 xarray.xmcml.                   mc               254.00 
       41 xarray.xmcmb0dum.               mc                16.00k
       42 xarray.xmcmb1dum.               mc                16.26k
       43 xarray.xmcbb1dum.               mc                64.00 
       44 xarray.xmctb0dum.               mc                63.00 
       45 xarray.xmctl.                   mc                 1.00 
       46 xarray.xwriter.                 write              1.00 
       47 xarray.xwriteb3dum.             write             63.00 
       48 xarray.xwriteb1dum.             write             64.00 
       49 xarray.xwriteb2dum.             write             64.00 
       50 xarray.xwriteb0dum.             write             63.00 
       51 xarray.xwritel.                 write              1.00 
       52 xdecoder.xpredecoder416.        predecode_416      1.00 
       53 xdecoder.xdecoder_stage.        decode_stage       1.00 
       54 xdecoder.xpredecoder24.         predecode_24       1.00 
       55 xsense63.xu1.                   inv_pcell_13       1.00 
       56 xsense63.xu0.                   inv_pcell_13       1.00 
       57 xsense63.xu3.                   inv_pcell_14       1.00 
       58 xsense63.xu2.                   inv_pcell_14       1.00 
       59 xsense0.xu1.                    inv_pcell_13       1.00 
       60 xsense0.xu0.                    inv_pcell_13       1.00 
       61 xsense0.xu3.                    inv_pcell_14       1.00 
       62 xsense0.xu2.                    inv_pcell_14       1.00 
       63 xvwl_mux.xi7.                   read_write_vwl_mux
                                                                 1.00 
       64 xvwl_mux.xi6.                   read_write_vwl_mux
                                                                 1.00 
       65 xvwl_mux.xi5.                   read_write_vwl_mux
                                                                 1.00 
       66 xvwl_mux.xi4.                   read_write_vwl_mux
                                                                 1.00 
       67 xvwl_mux.xi3.                   read_write_vwl_mux
                                                                 1.00 
       68 xvwl_mux.xi2.                   read_write_vwl_mux
                                                                 1.00 
       69 xvwl_mux.xi1.                   read_write_vwl_mux
                                                                 1.00 
       70 xvwl_mux.xi0.                   read_write_vwl_mux
                                                                 1.00 
       71 xvwl_mux.xu0.                   inv_pcell_01       1.00 
       72 xclk_gen.xgen.                  signal_gen         1.00 
       73 xa0_gen.xgen.                   signal_gen         1.00 
       74 xa255_gen.xgen.                 signal_gen         1.00 
       75 xarray.xwriter.xu0.             inv_pcell_4        1.00 
       76 xarray.xwriter.xu2.             inv_pcell_5        1.00 
       77 xarray.xwriter.xu1.             inv_pcell_5        1.00 
       78 xarray.xwriteb3dum.xu0.         inv_pcell_4       63.00 
       79 xarray.xwriteb3dum.xu2.         inv_pcell_5       63.00 
       80 xarray.xwriteb3dum.xu1.         inv_pcell_5       63.00 
       81 xarray.xwriteb1dum.xu0.         inv_pcell_4       64.00 
       82 xarray.xwriteb1dum.xu2.         inv_pcell_5       64.00 
       83 xarray.xwriteb1dum.xu1.         inv_pcell_5       64.00 
       84 xarray.xwriteb2dum.xu0.         inv_pcell_4       64.00 
       85 xarray.xwriteb2dum.xu2.         inv_pcell_5       64.00 
       86 xarray.xwriteb2dum.xu1.         inv_pcell_5       64.00 
       87 xarray.xwriteb0dum.xu0.         inv_pcell_4       63.00 
       88 xarray.xwriteb0dum.xu2.         inv_pcell_5       63.00 
       89 xarray.xwriteb0dum.xu1.         inv_pcell_5       63.00 
       90 xarray.xwritel.xu0.             inv_pcell_4        1.00 
       91 xarray.xwritel.xu2.             inv_pcell_5        1.00 
       92 xarray.xwritel.xu1.             inv_pcell_5        1.00 
       93 xdecoder.xpredecoder416.xi16.   nand_pcell_6       1.00 
       94 xdecoder.xpredecoder416.xi15.   nand_pcell_6       1.00 
       95 xdecoder.xpredecoder416.xi17.   nand_pcell_6       1.00 
       96 xdecoder.xpredecoder416.xi18.   nand_pcell_6       1.00 
       97 xdecoder.xpredecoder416.xu15.   inv_pcell_7        1.00 
       98 xdecoder.xpredecoder416.xu14.   inv_pcell_7        1.00 
       99 xdecoder.xpredecoder416.xu13.   inv_pcell_7        1.00 
      100 xdecoder.xpredecoder416.xu12.   inv_pcell_7        1.00 
      101 xdecoder.xpredecoder416.xu11.   inv_pcell_8        1.00 
      102 xdecoder.xpredecoder416.xu10.   inv_pcell_8        1.00 
      103 xdecoder.xpredecoder416.xu9.    inv_pcell_8        1.00 
      104 xdecoder.xpredecoder416.xu8.    inv_pcell_8        1.00 
      105 xdecoder.xpredecoder416.xu0.    inv_pcell_9        1.00 
      106 xdecoder.xpredecoder416.xu1.    inv_pcell_9        1.00 
      107 xdecoder.xpredecoder416.xu2.    inv_pcell_9        1.00 
      108 xdecoder.xpredecoder416.xu3.    inv_pcell_9        1.00 
      109 xdecoder.xdecoder_stage.xu3.    nand_pcell_10      1.00 
      110 xdecoder.xdecoder_stage.xu2.    nand_pcell_10      1.00 
      111 xdecoder.xdecoder_stage.xu1.    nand_pcell_10      1.00 
      112 xdecoder.xdecoder_stage.xu0.    nand_pcell_10      1.00 
      113 xdecoder.xdecoder_stage.xu8.    inv_pcell_11       1.00 
      114 xdecoder.xdecoder_stage.xu7.    inv_pcell_11       1.00 
      115 xdecoder.xdecoder_stage.xu6.    inv_pcell_11       1.00 
      116 xdecoder.xdecoder_stage.xu5.    inv_pcell_11       1.00 
      117 xdecoder.xpredecoder24.xu3.     inv_pcell_12       1.00 
      118 xdecoder.xpredecoder24.xu2.     inv_pcell_12       1.00 
      119 xdecoder.xpredecoder24.xu1.     inv_pcell_12       1.00 
      120 xdecoder.xpredecoder24.xu0.     inv_pcell_12       1.00 
      121 xdecoder.xpredecoder24.xi36.    nand3              1.00 
      122 xdecoder.xpredecoder24.xi37.    nand3              1.00 
      123 xdecoder.xpredecoder24.xi38.    nand3              1.00 
      124 xdecoder.xpredecoder24.xi39.    nand3              1.00 
      125 xclk_gen.xgen.x_0.              inv_chain_stimulus
                                                                 1.00 
      126 xa0_gen.xgen.x_0.               inv_chain_stimulus
                                                                 1.00 
      127 xa255_gen.xgen.x_0.             inv_chain_stimulus
                                                                 1.00 
      128 xclk_gen.xgen.x_0.x_0.          inv_stimulus       1.00 
      129 xclk_gen.xgen.x_0.x_1.          inv_stimulus       4.00 
      130 xclk_gen.xgen.x_0.x_2.          inv_stimulus      16.00 
      131 xclk_gen.xgen.x_0.x_3.          inv_stimulus      64.00 
      132 xa0_gen.xgen.x_0.x_0.           inv_stimulus       1.00 
      133 xa0_gen.xgen.x_0.x_1.           inv_stimulus       4.00 
      134 xa0_gen.xgen.x_0.x_2.           inv_stimulus      16.00 
      135 xa0_gen.xgen.x_0.x_3.           inv_stimulus      64.00 
      136 xa255_gen.xgen.x_0.x_0.         inv_stimulus       1.00 
      137 xa255_gen.xgen.x_0.x_1.         inv_stimulus       4.00 
      138 xa255_gen.xgen.x_0.x_2.         inv_stimulus      16.00 
      139 xa255_gen.xgen.x_0.x_3.         inv_stimulus      64.00 


 circuit parameter definitions
  parameter          =  value 

     0:supply                                                  = 700.0000m      
     0:tcyc                                                    =   1.0000n      
     0:trf                                                     =  50.0000p      
     0:pd24s1pw                                                =   7.0000       
     0:pd24s1nw                                                =   5.0000       
     0:pd24s2pw                                                =  13.0000       
     0:pd24s2nw                                                =   5.0000       
     0:pd416s3pw                                               =   9.0000       
     0:pd416s3nw                                               =   5.0000       
     0:pd416s4pw                                               =  12.0000       
     0:pd416s4nw                                               =   5.0000       
     0:pd416s5pw                                               =  12.0000       
     0:pd416s5nw                                               =   5.0000       
     0:pd416s6pw                                               =  30.0000       
     0:pd416s6nw                                               =  10.0000       
     0:dss7pw                                                  =   9.0000       
     0:dss7nw                                                  =   5.0000       
     0:dss8pw                                                  =  18.0000       
     0:dss8nw                                                  =   7.0000       
     0:bds9pw                                                  =  27.0000       
     0:bds9nw                                                  =  13.0000       
     0:bds10pw                                                 =  50.0000       
     0:bds10nw                                                 =   7.0000       
     0:blpcwidth                                               =  80.0000       
     0:wrenpwvdd                                               = 100.0000       
     0:wrenpwwl                                                = 100.0000       
     0:vdd_wr_value                                            = 560.0000m      
     0:max_bit_b                                               =   0.           
     0:wl0_rise                                                =   0.           
     0:wl0_width                                               =   0.           
     0:wl0_fall                                                =   0.           
     0:wl1_rise                                                =   0.           
     0:wl1_fall                                                =   0.           
     0:bl0_split                                               =   0.           
     0:bl1_split                                               =   0.           
     0:bl_pc_overlap                                           =   0.           
     0:bl63_pc_overlap                                         =   0.           
     0:clk-out0                                                =   0.           
     0:precharge                                               =   0.           
     0:sae-out0                                                =   0.           
     0:out0-width                                              =   0.           
     0:idsat_avg                                               =   0.           
     0:write_core_power                                        =   0.           
     0:vcell_power                                             =   0.           
     0:mem_core_power                                          =   0.           
   121:nl                                                      =   2.0000       
   121:nw                                                      =   5.0000       
   121:nm                                                      =   1.0000       
   121:pl                                                      =   2.0000       
   121:pw                                                      =   7.0000       
   121:pm                                                      =   1.0000       
   128:wp                                                      =  24.0000       
   128:lp                                                      =   2.0000       
   128:wn                                                      =   8.0000       
   128:ln                                                      =   2.0000       
   129:wp                                                      =  24.0000       
   129:lp                                                      =   2.0000       
   129:wn                                                      =   8.0000       
   129:ln                                                      =   2.0000       
   130:wp                                                      =  24.0000       
   130:lp                                                      =   2.0000       
   130:wn                                                      =   8.0000       
   130:ln                                                      =   2.0000       
   131:wp                                                      =  24.0000       
   131:lp                                                      =   2.0000       
   131:wn                                                      =   8.0000       
   131:ln                                                      =   2.0000       
   132:wp                                                      =  24.0000       
   132:lp                                                      =   2.0000       
   132:wn                                                      =   8.0000       
   132:ln                                                      =   2.0000       
   133:wp                                                      =  24.0000       
   133:lp                                                      =   2.0000       
   133:wn                                                      =   8.0000       
   133:ln                                                      =   2.0000       
   134:wp                                                      =  24.0000       
   134:lp                                                      =   2.0000       
   134:wn                                                      =   8.0000       
   134:ln                                                      =   2.0000       
   135:wp                                                      =  24.0000       
   135:lp                                                      =   2.0000       
   135:wn                                                      =   8.0000       
   135:ln                                                      =   2.0000       
   136:wp                                                      =  24.0000       
   136:lp                                                      =   2.0000       
   136:wn                                                      =   8.0000       
   136:ln                                                      =   2.0000       
   137:wp                                                      =  24.0000       
   137:lp                                                      =   2.0000       
   137:wn                                                      =   8.0000       
   137:ln                                                      =   2.0000       
   138:wp                                                      =  24.0000       
   138:lp                                                      =   2.0000       
   138:wn                                                      =   8.0000       
   138:ln                                                      =   2.0000       
   139:wp                                                      =  24.0000       
   139:lp                                                      =   2.0000       
   139:wn                                                      =   8.0000       
   139:ln                                                      =   2.0000       




 constants  - tnom         kt           vt           gapsi        ni
            298.15000    4.1163e-21    25.69184m     1.11562    1.2565e+16 
  **info** (part2_decoder_Blocked_Slowed_Switched_WR_Voltages.hsp:100) DC voltage reset to initial transient source value              in source        0:vblock0             new dc=  0.0000D+00
  **warning** (/usr/class/ee313/ee313_spice_header.h:18) Both nodes of element vgnd are connected together; Line ignored.
 ** warning** associated with encrypted blocks were suppressed

  **warning** (part2_decoder_Blocked_Slowed_Switched_WR_Voltages.hsp:110) Unable to find referenced node b0wl0; Output variable ignored. Specify a valid node.
1****** HSPICE -- F-2011.09-SP2 32-BIT (Feb 27 2012) linux ******               
 ******  
 part 2

  ******  circuit element summary tnom=  25.000 temp=  25.000 *****


 **** capacitors
  
  
                                                                    
 element name        5:c1           5:c0        6:c1        6:c0    
 node1               5:predec_25    5:predec    0:sapc_b    0:b3sae 
 node2               0:0            0:0         0:0         0:0     
 model                                                              
 cap eff            22.5300f       22.5300f   560.0000a   560.0000a 
 tc1                 0.             0.          0.          0.      
 tc2                 0.             0.          0.          0.      
 scale               1.0000         1.0000      1.0000      1.0000  
 ic                  0.             0.          0.          0.      
 m                   1.0000         1.0000      1.0000      1.0000  
 w                   0.             0.          0.          0.      
 l                   0.             0.          0.          0.      
 temp               25.0000        25.0000     25.0000     25.0000  
  
  
                                                                
 element name        7:c1        7:c0      28:c2      28:c1     
 node1               0:sapc_b    0:b0sae    0:bl63     0:bl_b63 
 node2               0:0         0:0        0:0        0:0      
 model                                                          
 cap eff           560.0000a   560.0000a   88.0000a   88.0000a  
 tc1                 0.          0.         0.         0.       
 tc2                 0.          0.         0.         0.       
 scale               1.0000      1.0000     1.0000     1.0000   
 ic                  0.          0.         0.         0.       
 m                   1.0000      1.0000     1.0000     1.0000   
 w                   0.          0.         0.         0.       
 l                   0.          0.         0.         0.       
 temp               25.0000     25.0000    25.0000    25.0000   
  
  
                                                                  
 element name       28:c0         29:c2      29:c1       30:c2    
 node1               0:b3wl0_sw    0:bl63     0:bl_b63    0:bl63  
 node2               0:0           0:0        0:0         0:0     
 model                                                            
 cap eff           140.0000a      22.3520f   22.3520f    88.0000a 
 tc1                 0.            0.         0.          0.      
 tc2                 0.            0.         0.          0.      
 scale               1.0000        1.0000     1.0000      1.0000  
 ic                  0.            0.         0.          0.      
 m                   1.0000      254.0000   254.0000      1.0000  
 w                   0.            0.         0.          0.      
 l                   0.            0.         0.          0.      
 temp               25.0000       25.0000    25.0000     25.0000  
  
  
                                                                      
 element name       30:c1       30:c0         31:c2        31:c1      
 node1               0:bl_b63    0:b3wl255_    4:net0207    4:net0206 
 node2               0:0         0:0           0:0          0:0       
 model                                                                
 cap eff            88.0000a   140.0000a       5.5440f      5.5440f   
 tc1                 0.          0.            0.           0.        
 tc2                 0.          0.            0.           0.        
 scale               1.0000      1.0000        1.0000       1.0000    
 ic                  0.          0.            0.           0.        
 m                   1.0000      1.0000       63.0000      63.0000    
 w                   0.          0.            0.           0.        
 l                   0.          0.            0.           0.        
 temp               25.0000     25.0000       25.0000      25.0000    
  
  
                                                                       
 element name       31:c0         32:c2        32:c1        33:c2      
 node1               0:b3wl0_sw    4:net0207    4:net0206    4:net0207 
 node2               0:0           0:0          0:0          0:0       
 model                                                                 
 cap eff             8.8200f       1.4080p      1.4080p      5.5440f   
 tc1                 0.            0.           0.           0.        
 tc2                 0.            0.           0.           0.        
 scale               1.0000        1.0000       1.0000       1.0000    
 ic                  0.            0.           0.           0.        
 m                  63.0000       16.0000k     16.0000k     63.0000    
 w                   0.            0.           0.           0.        
 l                   0.            0.           0.           0.        
 temp               25.0000       25.0000      25.0000      25.0000    
  
  
                                                                       
 element name       33:c1        33:c0         34:c2        34:c1      
 node1               4:net0206    0:b3wl255_    4:net0163    4:net0162 
 node2               0:0          0:0           0:0          0:0       
 model                                                                 
 cap eff             5.5440f      8.8200f       5.6320f      5.6320f   
 tc1                 0.           0.            0.           0.        
 tc2                 0.           0.            0.           0.        
 scale               1.0000       1.0000        1.0000       1.0000    
 ic                  0.           0.            0.           0.        
 m                  63.0000      63.0000       64.0000      64.0000    
 w                   0.           0.            0.           0.        
 l                   0.           0.            0.           0.        
 temp               25.0000      25.0000       25.0000      25.0000    
  
  
                                                                        
 element name       34:c0         35:c2        35:c1        35:c0       
 node1               0:b2wl255_    4:net0163    4:net0162    0:b2wl0_sw 
 node2               0:0           0:0          0:0          0:0        
 model                                                                  
 cap eff             8.9600f       5.6320f      5.6320f      8.9600f    
 tc1                 0.            0.           0.           0.         
 tc2                 0.            0.           0.           0.         
 scale               1.0000        1.0000       1.0000       1.0000     
 ic                  0.            0.           0.           0.         
 m                  64.0000       64.0000      64.0000      64.0000     
 w                   0.            0.           0.           0.         
 l                   0.            0.           0.           0.         
 temp               25.0000       25.0000      25.0000      25.0000     
  
  
                                                                      
 element name       36:c2        36:c1        37:c2        37:c1      
 node1               4:net0163    4:net0162    4:net0180    4:net0136 
 node2               0:0          0:0          0:0          0:0       
 model                                                                
 cap eff             1.4309p      1.4309p      5.6320f      5.6320f   
 tc1                 0.           0.           0.           0.        
 tc2                 0.           0.           0.           0.        
 scale               1.0000       1.0000       1.0000       1.0000    
 ic                  0.           0.           0.           0.        
 m                  16.2600k     16.2600k     64.0000      64.0000    
 w                   0.           0.           0.           0.        
 l                   0.           0.           0.           0.        
 temp               25.0000      25.0000      25.0000      25.0000    
  
  
                                                                        
 element name       37:c0         38:c2        38:c1        38:c0       
 node1               0:b1wl0_sw    4:net0234    4:net0233    0:b0wl255_ 
 node2               0:0           0:0          0:0          0:0        
 model                                                                  
 cap eff             8.9600f       5.5440f      5.5440f      8.8200f    
 tc1                 0.            0.           0.           0.         
 tc2                 0.            0.           0.           0.         
 scale               1.0000        1.0000       1.0000       1.0000     
 ic                  0.            0.           0.           0.         
 m                  64.0000       63.0000      63.0000      63.0000     
 w                   0.            0.           0.           0.         
 l                   0.            0.           0.           0.         
 temp               25.0000       25.0000      25.0000      25.0000     
  
  
                                                                 
 element name       39:c2      39:c1      39:c0         40:c2    
 node1               0:bl0      0:bl_b0    0:b0wl255_    0:bl0   
 node2               0:0        0:0        0:0           0:0     
 model                                                           
 cap eff            88.0000a   88.0000a  140.0000a      22.3520f 
 tc1                 0.         0.         0.            0.      
 tc2                 0.         0.         0.            0.      
 scale               1.0000     1.0000     1.0000        1.0000  
 ic                  0.         0.         0.            0.      
 m                   1.0000     1.0000     1.0000      254.0000  
 w                   0.         0.         0.            0.      
 l                   0.         0.         0.            0.      
 temp               25.0000    25.0000    25.0000       25.0000  
  
  
                                                                    
 element name       40:c1      41:c2        41:c1        42:c2      
 node1               0:bl_b0    4:net0234    4:net0233    4:net0180 
 node2               0:0        0:0          0:0          0:0       
 model                                                              
 cap eff            22.3520f    1.4080p      1.4080p      1.4309p   
 tc1                 0.         0.           0.           0.        
 tc2                 0.         0.           0.           0.        
 scale               1.0000     1.0000       1.0000       1.0000    
 ic                  0.         0.           0.           0.        
 m                 254.0000    16.0000k     16.0000k     16.2600k   
 w                   0.         0.           0.           0.        
 l                   0.         0.           0.           0.        
 temp               25.0000    25.0000      25.0000      25.0000    
  
  
                                                                       
 element name       42:c1        43:c2        43:c1        43:c0       
 node1               4:net0136    4:net0180    4:net0136    0:b1wl255_ 
 node2               0:0          0:0          0:0          0:0        
 model                                                                 
 cap eff             1.4309p      5.6320f      5.6320f      8.9600f    
 tc1                 0.           0.           0.           0.         
 tc2                 0.           0.           0.           0.         
 scale               1.0000       1.0000       1.0000       1.0000     
 ic                  0.           0.           0.           0.         
 m                  16.2600k     64.0000      64.0000      64.0000     
 w                   0.           0.           0.           0.         
 l                   0.           0.           0.           0.         
 temp               25.0000      25.0000      25.0000      25.0000     
  
  
                                                                     
 element name       44:c2        44:c1        44:c0         45:c2    
 node1               4:net0234    4:net0233    0:b0wl0_sw    0:bl0   
 node2               0:0          0:0          0:0           0:0     
 model                                                               
 cap eff             5.5440f      5.5440f      8.8200f      88.0000a 
 tc1                 0.           0.           0.            0.      
 tc2                 0.           0.           0.            0.      
 scale               1.0000       1.0000       1.0000        1.0000  
 ic                  0.           0.           0.            0.      
 m                  63.0000      63.0000      63.0000        1.0000  
 w                   0.           0.           0.            0.      
 l                   0.           0.           0.            0.      
 temp               25.0000      25.0000      25.0000       25.0000  
  
  
                                           
 element name       45:c1      45:c0       
 node1               0:bl_b0    0:b0wl0_sw 
 node2               0:0        0:0        
 model                                     
 cap eff            88.0000a  140.0000a    
 tc1                 0.         0.         
 tc2                 0.         0.         
 scale               1.0000     1.0000     
 ic                  0.         0.         
 m                   1.0000     1.0000     
 w                   0.         0.         
 l                   0.         0.         
 temp               25.0000    25.0000     


 **** voltage-controlled voltage sources
      name        +             -          dimension  function  scale
       72:e_0            72:net_3           0:0              1      poly       1.    
       73:e_0            73:net_3           0:0              1      poly       1.    
       74:e_0            74:net_3           0:0              1      poly       1.    


 **** current-controlled current sources
      name        +             -          dimension  function  multiplier
       72:f_0            72:net_4           0:0              1      poly       1.    
       72:f_1            72:net_4           0:0              1      poly       1.    
       73:f_0            73:net_4           0:0              1      poly       1.    
       73:f_1            73:net_4           0:0              1      poly       1.    
       74:f_0            74:net_4           0:0              1      poly       1.    
       74:f_1            74:net_4           0:0              1      poly       1.    


 **** independent sources

     name         node1        node2      dc volt    ac mag    ac phase    type
  v_supply  vdd               0                  700.0000m    0.         0.      dc   
  v_supply1  vdd!              0                  700.0000m    0.         0.      dc   
  vblock0  block0            0                    0.         0.         0.      pulse
             initial value     0.     
             pulsed value.   700.0000m
             delay time...   500.0000p
             risetime.....    50.0000p
             falltime.....    50.0000p
             width........     2.0000n
             period.......     4.0000n

  vblock3  block3            0                  700.0000m    0.         0.      pulse
             initial value   700.0000m
             pulsed value.     0.     
             delay time...   500.0000p
             risetime.....    50.0000p
             falltime.....    50.0000p
             width........     2.0000n
             period.......     4.0000n

  vblpc_b  blpc_b            0                  700.0000m    0.         0.      pulse
             initial value   700.0000m
             pulsed value.     0.     
             delay time...   185.0000p
             risetime.....    50.0000p
             falltime.....    50.0000p
             width........   450.0000p
             period.......     1.0000n

  vsae  sae               0                    0.         0.         0.      pulse
             initial value     0.     
             pulsed value.   700.0000m
             delay time...     1.1500n
             risetime.....    50.0000p
             falltime.....    50.0000p
             width........   450.0000p
             period.......     1.0000n

  vsapc_b  sapc_b            0                  700.0000m    0.         0.      pulse
             initial value   700.0000m
             pulsed value.     0.     
             delay time...   300.0000p
             risetime.....    50.0000p
             falltime.....    50.0000p
             width........   450.0000p
             period.......     1.0000n

  vsel_b0  sel_b0            0                  700.0000m    0.         0.      pulse
             initial value   700.0000m
             pulsed value.     0.     
             delay time...     1.0000n
             risetime.....    50.0000p
             falltime.....    50.0000p
             width........   450.0000p
             period.......     1.0000n

  vsel_b63  sel_b63           0                  700.0000m    0.         0.      pulse
             initial value   700.0000m
             pulsed value.     0.     
             delay time...     1.0000n
             risetime.....    50.0000p
             falltime.....    50.0000p
             width........   450.0000p
             period.......     1.0000n

  vvcell  vcell             0                  630.0000m    0.         0.      dc   
  vvdd_wr  vdd_wr            0                  560.0000m    0.         0.      dc   
  vwrdata0  wrdata0           0                    0.         0.         0.      dc   
  vwrdata255  wrdata255         0                  700.0000m    0.         0.      dc   
  vwren  wren              0                    0.         0.         0.      pulse
             initial value     0.     
             pulsed value.   700.0000m
             delay time...     8.5000n
             risetime.....    50.0000p
             falltime.....    50.0000p
             width........     4.0000n
             period.......    12.0000n

 xclk_gen.vsrc xclk_gen.src               0                    0.         0.         0.      pulse
             initial value     0.     
             pulsed value.   700.0000m
             delay time...   500.0000p
             risetime.....    50.0000p
             falltime.....    50.0000p
             width........   450.0000p
             period.......     1.0000n

 xa0_gen.vsrc xa0_gen.src               0                    0.         0.         0.      pulse
             initial value     0.     
             pulsed value.   700.0000m
             delay time...   375.0000p
             risetime.....    50.0000p
             falltime.....    50.0000p
             width........   950.0000p
             period.......     2.0000n

 xa255_gen.vsrc xa255_gen.src               0                    0.         0.         0.      pulse
             initial value     0.     
             pulsed value.   700.0000m
             delay time...     1.3750n
             risetime.....    50.0000p
             falltime.....    50.0000p
             width........   950.0000p
             period.......     2.0000n

 xclk_gen.xgen.v_monitor xclk_gen.xgen.net_4             0                  700.0000m    0.         0.      dc   
 xclk_gen.xgen.v_sense xclk_gen.xgen.net_3             ck                   0.         0.         0.      dc   
 xa0_gen.xgen.v_monitor xa0_gen.xgen.net_4             0                  700.0000m    0.         0.      dc   
 xa0_gen.xgen.v_sense xa0_gen.xgen.net_3             a0                   0.         0.         0.      dc   
 xa255_gen.xgen.v_monitor xa255_gen.xgen.net_4             0                  700.0000m    0.         0.      dc   
 xa255_gen.xgen.v_sense xa255_gen.xgen.net_3             a255                 0.         0.         0.      dc   
 xclk_gen.xgen.x_0.x_0.vstimulus_supply xclk_gen.xgen.x_0.x_0.vdd_stimulus      0                  700.0000m    0.         0.      dc   
 xclk_gen.xgen.x_0.x_1.vstimulus_supply xclk_gen.xgen.x_0.x_1.vdd_stimulus      0                  700.0000m    0.         0.      dc   
 xclk_gen.xgen.x_0.x_2.vstimulus_supply xclk_gen.xgen.x_0.x_2.vdd_stimulus      0                  700.0000m    0.         0.      dc   
 xclk_gen.xgen.x_0.x_3.vstimulus_supply xclk_gen.xgen.x_0.x_3.vdd_stimulus      0                  700.0000m    0.         0.      dc   
 xa0_gen.xgen.x_0.x_0.vstimulus_supply xa0_gen.xgen.x_0.x_0.vdd_stimulus      0                  700.0000m    0.         0.      dc   
 xa0_gen.xgen.x_0.x_1.vstimulus_supply xa0_gen.xgen.x_0.x_1.vdd_stimulus      0                  700.0000m    0.         0.      dc   
 xa0_gen.xgen.x_0.x_2.vstimulus_supply xa0_gen.xgen.x_0.x_2.vdd_stimulus      0                  700.0000m    0.         0.      dc   
 xa0_gen.xgen.x_0.x_3.vstimulus_supply xa0_gen.xgen.x_0.x_3.vdd_stimulus      0                  700.0000m    0.         0.      dc   
 xa255_gen.xgen.x_0.x_0.vstimulus_supply xa255_gen.xgen.x_0.x_0.vdd_stimulus      0                  700.0000m    0.         0.      dc   
 xa255_gen.xgen.x_0.x_1.vstimulus_supply xa255_gen.xgen.x_0.x_1.vdd_stimulus      0                  700.0000m    0.         0.      dc   
 xa255_gen.xgen.x_0.x_2.vstimulus_supply xa255_gen.xgen.x_0.x_2.vdd_stimulus      0                  700.0000m    0.         0.      dc   
 xa255_gen.xgen.x_0.x_3.vstimulus_supply xa255_gen.xgen.x_0.x_3.vdd_stimulus      0                  700.0000m    0.         0.      dc   


 **** mosfets


 **** BSIM4 Model (Level 54)
  
  
                                                                
 element name        6:m4       6:m3       6:meq       6:mpc2   
 drain               6:sbl_b    0:vdd!     6:sbl       0:vdd!   
 gate                6:sbl      6:sbl_b    0:sapc_b    0:sapc_b 
 source              0:vdd!     6:sbl      6:sbl_b     6:sbl_b  
 bulk                0:vdd!     0:vdd!     0:vdd!      0:vdd!   
 model               0:pmos     0:pmos     0:pmos      0:pmos   
 w eff              78.0000n   78.0000n  166.0000n   166.0000n  
 l eff              29.0000n   29.0000n   29.0000n    29.0000n  
 rd eff              0.         0.         0.          0.       
 rs eff              0.         0.         0.          0.       
 cdsat               7.8700a    7.8700a   15.1073a    15.1073a  
 cssat               7.8700a    7.8700a   15.1073a    15.1073a  
 capbd             133.6681a  133.6681a  223.4243a   223.4243a  
 capbs             116.1033a  116.1033a  188.2947a   188.2947a  
 temp               25.0000    25.0000    25.0000     25.0000   
 aic                                                            
 nf                  1.0000     1.0000     1.0000      1.0000   
 min                 0.         0.         0.          0.       
 rbdb               15.0000    15.0000    15.0000     15.0000   
 rbsb               15.0000    15.0000    15.0000     15.0000   
 rbpb                5.0000     5.0000     5.0000      5.0000   
 rbps               15.0000    15.0000    15.0000     15.0000   
 rbpd               15.0000    15.0000    15.0000     15.0000   
 trnqsmod            0.         0.         0.          0.       
 acnqsmod            0.         0.         0.          0.       
 rbodymod            1.0000     1.0000     1.0000      1.0000   
 rgatemod            1.0000     1.0000     1.0000      1.0000   
 geomod              0.         0.         0.          0.       
 rgeomod             0.         0.         0.          0.       
 delvto              0.         0.         0.          0.       
 mulu0               1.0000     1.0000     1.0000      1.0000   
 delk1               0.         0.         0.          0.       
 delnfct             0.         0.         0.          0.       
 deltox              0.         0.         0.          0.       
 sa                  0.         0.         0.          0.       
 sb                  0.         0.         0.          0.       
 sd                  0.         0.         0.          0.       
 saeff               0.         0.         0.          0.       
 sbeff               0.         0.         0.          0.       
  
  
                                                                 
 element name        6:mpc       6:miso_b    6:miso     6:mmx4_b 
 drain               6:sbl       6:sbl_b     6:sbl      6:cmbl_b 
 gate                0:sapc_b    0:b3sae     0:b3sae    0:vdd!   
 source              0:vdd!      6:cmbl_b    6:cmbl     0:vdd!   
 bulk                0:vdd!      0:vdd!      0:vdd!     0:vdd!   
 model               0:pmos      0:pmos      0:pmos     0:pmos   
 w eff             166.0000n   254.0000n   254.0000n  518.0000n  
 l eff              29.0000n    29.0000n    29.0000n   29.0000n  
 rd eff              0.          0.          0.         0.       
 rs eff              0.          0.          0.         0.       
 cdsat              15.1073a    22.3447a    22.3447a   44.0567a  
 cssat              15.1073a    22.3447a    22.3447a   44.0567a  
 capbd             223.4243a   313.1804a   313.1804a  582.4488a  
 capbs             188.2947a   260.4860a   260.4860a  477.0600a  
 temp               25.0000     25.0000     25.0000    25.0000   
 aic                                                             
 nf                  1.0000      1.0000      1.0000     1.0000   
 min                 0.          0.          0.         0.       
 rbdb               15.0000     15.0000     15.0000    15.0000   
 rbsb               15.0000     15.0000     15.0000    15.0000   
 rbpb                5.0000      5.0000      5.0000     5.0000   
 rbps               15.0000     15.0000     15.0000    15.0000   
 rbpd               15.0000     15.0000     15.0000    15.0000   
 trnqsmod            0.          0.          0.         0.       
 acnqsmod            0.          0.          0.         0.       
 rbodymod            1.0000      1.0000      1.0000     1.0000   
 rgatemod            1.0000      1.0000      1.0000     1.0000   
 geomod              0.          0.          0.         0.       
 rgeomod             0.          0.          0.         0.       
 delvto              0.          0.          0.         0.       
 mulu0               1.0000      1.0000      1.0000     1.0000   
 delk1               0.          0.          0.         0.       
 delnfct             0.          0.          0.         0.       
 deltox              0.          0.          0.         0.       
 sa                  0.          0.          0.         0.       
 sb                  0.          0.          0.         0.       
 sd                  0.          0.          0.         0.       
 saeff               0.          0.          0.         0.       
 sbeff               0.          0.          0.         0.       
  
  
                                                                
 element name        6:mmx4     6:mmx3_b    6:mmx3     6:mmx2_b 
 drain               6:cmbl     6:cmbl_b    6:cmbl     6:cmbl_b 
 gate                0:vdd!     0:vdd!      0:vdd!     0:vdd!   
 source              0:vdd!     0:vdd!      0:vdd!     0:vdd!   
 bulk                0:vdd!     0:vdd!      0:vdd!     0:vdd!   
 model               0:pmos     0:pmos      0:pmos     0:pmos   
 w eff             518.0000n  518.0000n   518.0000n  518.0000n  
 l eff              29.0000n   29.0000n    29.0000n   29.0000n  
 rd eff              0.         0.          0.         0.       
 rs eff              0.         0.          0.         0.       
 cdsat              44.0567a   44.0567a    44.0567a   44.0567a  
 cssat              44.0567a   44.0567a    44.0567a   44.0567a  
 capbd             582.4488a  582.4488a   582.4488a  582.4488a  
 capbs             477.0600a  477.0600a   477.0600a  477.0600a  
 temp               25.0000    25.0000     25.0000    25.0000   
 aic                                                            
 nf                  1.0000     1.0000      1.0000     1.0000   
 min                 0.         0.          0.         0.       
 rbdb               15.0000    15.0000     15.0000    15.0000   
 rbsb               15.0000    15.0000     15.0000    15.0000   
 rbpb                5.0000     5.0000      5.0000     5.0000   
 rbps               15.0000    15.0000     15.0000    15.0000   
 rbpd               15.0000    15.0000     15.0000    15.0000   
 trnqsmod            0.         0.          0.         0.       
 acnqsmod            0.         0.          0.         0.       
 rbodymod            1.0000     1.0000      1.0000     1.0000   
 rgatemod            1.0000     1.0000      1.0000     1.0000   
 geomod              0.         0.          0.         0.       
 rgeomod             0.         0.          0.         0.       
 delvto              0.         0.          0.         0.       
 mulu0               1.0000     1.0000      1.0000     1.0000   
 delk1               0.         0.          0.         0.       
 delnfct             0.         0.          0.         0.       
 deltox              0.         0.          0.         0.       
 sa                  0.         0.          0.         0.       
 sb                  0.         0.          0.         0.       
 sd                  0.         0.          0.         0.       
 saeff               0.         0.          0.         0.       
 sbeff               0.         0.          0.         0.       
  
  
                                                                    
 element name        6:mmx2     6:mmx_b       6:mmx         6:mtail 
 drain               6:cmbl     6:cmbl_b      6:cmbl        6:tail  
 gate                0:vdd!     0:b3sel_b6    0:b3sel_b6    0:b3sae 
 source              0:vdd!     0:bl_b63      0:bl63        0:0     
 bulk                0:vdd!     0:vdd!        0:vdd!        0:0     
 model               0:pmos     0:pmos        0:pmos        0:nmos  
 w eff             518.0000n  518.0000n     518.0000n     166.0000n 
 l eff              29.0000n   29.0000n      29.0000n      29.0000n 
 rd eff              0.         0.            0.            0.      
 rs eff              0.         0.            0.            0.      
 cdsat              44.0567a   44.0567a      44.0567a      15.1073a 
 cssat              44.0567a   44.0567a      44.0567a      15.1073a 
 capbd             582.4488a  582.4488a     582.4488a     223.4243a 
 capbs             477.0600a  477.0600a     477.0600a     188.2947a 
 temp               25.0000    25.0000       25.0000       25.0000  
 aic                                                                
 nf                  1.0000     1.0000        1.0000        1.0000  
 min                 0.         0.            0.            0.      
 rbdb               15.0000    15.0000       15.0000       15.0000  
 rbsb               15.0000    15.0000       15.0000       15.0000  
 rbpb                5.0000     5.0000        5.0000        5.0000  
 rbps               15.0000    15.0000       15.0000       15.0000  
 rbpd               15.0000    15.0000       15.0000       15.0000  
 trnqsmod            0.         0.            0.            0.      
 acnqsmod            0.         0.            0.            0.      
 rbodymod            1.0000     1.0000        1.0000        1.0000  
 rgatemod            1.0000     1.0000        1.0000        1.0000  
 geomod              0.         0.            0.            0.      
 rgeomod             0.         0.            0.            0.      
 delvto              0.         0.            0.            0.      
 mulu0               1.0000     1.0000        1.0000        1.0000  
 delk1               0.         0.            0.            0.      
 delnfct             0.         0.            0.            0.      
 deltox              0.         0.            0.            0.      
 sa                  0.         0.            0.            0.      
 sb                  0.         0.            0.            0.      
 sd                  0.         0.            0.            0.      
 saeff               0.         0.            0.            0.      
 sbeff               0.         0.            0.            0.      
  
  
                                                              
 element name        6:m1       6:m2       7:m4       7:m3    
 drain               6:tail     6:sbl_b    7:sbl_b    0:vdd!  
 gate                6:sbl_b    6:sbl      7:sbl      7:sbl_b 
 source              6:sbl      6:tail     0:vdd!     7:sbl   
 bulk                0:0        0:0        0:vdd!     0:vdd!  
 model               0:nmos     0:nmos     0:pmos     0:pmos  
 w eff             122.0000n  122.0000n   78.0000n   78.0000n 
 l eff              29.0000n   29.0000n   29.0000n   29.0000n 
 rd eff              0.         0.         0.         0.      
 rs eff              0.         0.         0.         0.      
 cdsat              11.4887a   11.4887a    7.8700a    7.8700a 
 cssat              11.4887a   11.4887a    7.8700a    7.8700a 
 capbd             178.5462a  178.5462a  133.6681a  133.6681a 
 capbs             152.1990a  152.1990a  116.1033a  116.1033a 
 temp               25.0000    25.0000    25.0000    25.0000  
 aic                                                          
 nf                  1.0000     1.0000     1.0000     1.0000  
 min                 0.         0.         0.         0.      
 rbdb               15.0000    15.0000    15.0000    15.0000  
 rbsb               15.0000    15.0000    15.0000    15.0000  
 rbpb                5.0000     5.0000     5.0000     5.0000  
 rbps               15.0000    15.0000    15.0000    15.0000  
 rbpd               15.0000    15.0000    15.0000    15.0000  
 trnqsmod            0.         0.         0.         0.      
 acnqsmod            0.         0.         0.         0.      
 rbodymod            1.0000     1.0000     1.0000     1.0000  
 rgatemod            1.0000     1.0000     1.0000     1.0000  
 geomod              0.         0.         0.         0.      
 rgeomod             0.         0.         0.         0.      
 delvto              0.         0.         0.         0.      
 mulu0               1.0000     1.0000     1.0000     1.0000  
 delk1               0.         0.         0.         0.      
 delnfct             0.         0.         0.         0.      
 deltox              0.         0.         0.         0.      
 sa                  0.         0.         0.         0.      
 sb                  0.         0.         0.         0.      
 sd                  0.         0.         0.         0.      
 saeff               0.         0.         0.         0.      
 sbeff               0.         0.         0.         0.      
  
  
                                                                  
 element name        7:meq       7:mpc2      7:mpc       7:miso_b 
 drain               7:sbl       0:vdd!      7:sbl       7:sbl_b  
 gate                0:sapc_b    0:sapc_b    0:sapc_b    0:b0sae  
 source              7:sbl_b     7:sbl_b     0:vdd!      7:cmbl_b 
 bulk                0:vdd!      0:vdd!      0:vdd!      0:vdd!   
 model               0:pmos      0:pmos      0:pmos      0:pmos   
 w eff             166.0000n   166.0000n   166.0000n   254.0000n  
 l eff              29.0000n    29.0000n    29.0000n    29.0000n  
 rd eff              0.          0.          0.          0.       
 rs eff              0.          0.          0.          0.       
 cdsat              15.1073a    15.1073a    15.1073a    22.3447a  
 cssat              15.1073a    15.1073a    15.1073a    22.3447a  
 capbd             223.4243a   223.4243a   223.4243a   313.1804a  
 capbs             188.2947a   188.2947a   188.2947a   260.4860a  
 temp               25.0000     25.0000     25.0000     25.0000   
 aic                                                              
 nf                  1.0000      1.0000      1.0000      1.0000   
 min                 0.          0.          0.          0.       
 rbdb               15.0000     15.0000     15.0000     15.0000   
 rbsb               15.0000     15.0000     15.0000     15.0000   
 rbpb                5.0000      5.0000      5.0000      5.0000   
 rbps               15.0000     15.0000     15.0000     15.0000   
 rbpd               15.0000     15.0000     15.0000     15.0000   
 trnqsmod            0.          0.          0.          0.       
 acnqsmod            0.          0.          0.          0.       
 rbodymod            1.0000      1.0000      1.0000      1.0000   
 rgatemod            1.0000      1.0000      1.0000      1.0000   
 geomod              0.          0.          0.          0.       
 rgeomod             0.          0.          0.          0.       
 delvto              0.          0.          0.          0.       
 mulu0               1.0000      1.0000      1.0000      1.0000   
 delk1               0.          0.          0.          0.       
 delnfct             0.          0.          0.          0.       
 deltox              0.          0.          0.          0.       
 sa                  0.          0.          0.          0.       
 sb                  0.          0.          0.          0.       
 sd                  0.          0.          0.          0.       
 saeff               0.          0.          0.          0.       
 sbeff               0.          0.          0.          0.       
  
  
                                                                
 element name        7:miso     7:mmx4_b    7:mmx4     7:mmx3_b 
 drain               7:sbl      7:cmbl_b    7:cmbl     7:cmbl_b 
 gate                0:b0sae    0:vdd!      0:vdd!     0:vdd!   
 source              7:cmbl     0:vdd!      0:vdd!     0:vdd!   
 bulk                0:vdd!     0:vdd!      0:vdd!     0:vdd!   
 model               0:pmos     0:pmos      0:pmos     0:pmos   
 w eff             254.0000n  518.0000n   518.0000n  518.0000n  
 l eff              29.0000n   29.0000n    29.0000n   29.0000n  
 rd eff              0.         0.          0.         0.       
 rs eff              0.         0.          0.         0.       
 cdsat              22.3447a   44.0567a    44.0567a   44.0567a  
 cssat              22.3447a   44.0567a    44.0567a   44.0567a  
 capbd             313.1804a  582.4488a   582.4488a  582.4488a  
 capbs             260.4860a  477.0600a   477.0600a  477.0600a  
 temp               25.0000    25.0000     25.0000    25.0000   
 aic                                                            
 nf                  1.0000     1.0000      1.0000     1.0000   
 min                 0.         0.          0.         0.       
 rbdb               15.0000    15.0000     15.0000    15.0000   
 rbsb               15.0000    15.0000     15.0000    15.0000   
 rbpb                5.0000     5.0000      5.0000     5.0000   
 rbps               15.0000    15.0000     15.0000    15.0000   
 rbpd               15.0000    15.0000     15.0000    15.0000   
 trnqsmod            0.         0.          0.         0.       
 acnqsmod            0.         0.          0.         0.       
 rbodymod            1.0000     1.0000      1.0000     1.0000   
 rgatemod            1.0000     1.0000      1.0000     1.0000   
 geomod              0.         0.          0.         0.       
 rgeomod             0.         0.          0.         0.       
 delvto              0.         0.          0.         0.       
 mulu0               1.0000     1.0000      1.0000     1.0000   
 delk1               0.         0.          0.         0.       
 delnfct             0.         0.          0.         0.       
 deltox              0.         0.          0.         0.       
 sa                  0.         0.          0.         0.       
 sb                  0.         0.          0.         0.       
 sd                  0.         0.          0.         0.       
 saeff               0.         0.          0.         0.       
 sbeff               0.         0.          0.         0.       
  
  
                                                                  
 element name        7:mmx3     7:mmx2_b    7:mmx2     7:mmx_b    
 drain               7:cmbl     7:cmbl_b    7:cmbl     7:cmbl_b   
 gate                0:vdd!     0:vdd!      0:vdd!     0:b0sel_b0 
 source              0:vdd!     0:vdd!      0:vdd!     0:bl_b0    
 bulk                0:vdd!     0:vdd!      0:vdd!     0:vdd!     
 model               0:pmos     0:pmos      0:pmos     0:pmos     
 w eff             518.0000n  518.0000n   518.0000n  518.0000n    
 l eff              29.0000n   29.0000n    29.0000n   29.0000n    
 rd eff              0.         0.          0.         0.         
 rs eff              0.         0.          0.         0.         
 cdsat              44.0567a   44.0567a    44.0567a   44.0567a    
 cssat              44.0567a   44.0567a    44.0567a   44.0567a    
 capbd             582.4488a  582.4488a   582.4488a  582.4488a    
 capbs             477.0600a  477.0600a   477.0600a  477.0600a    
 temp               25.0000    25.0000     25.0000    25.0000     
 aic                                                              
 nf                  1.0000     1.0000      1.0000     1.0000     
 min                 0.         0.          0.         0.         
 rbdb               15.0000    15.0000     15.0000    15.0000     
 rbsb               15.0000    15.0000     15.0000    15.0000     
 rbpb                5.0000     5.0000      5.0000     5.0000     
 rbps               15.0000    15.0000     15.0000    15.0000     
 rbpd               15.0000    15.0000     15.0000    15.0000     
 trnqsmod            0.         0.          0.         0.         
 acnqsmod            0.         0.          0.         0.         
 rbodymod            1.0000     1.0000      1.0000     1.0000     
 rgatemod            1.0000     1.0000      1.0000     1.0000     
 geomod              0.         0.          0.         0.         
 rgeomod             0.         0.          0.         0.         
 delvto              0.         0.          0.         0.         
 mulu0               1.0000     1.0000      1.0000     1.0000     
 delk1               0.         0.          0.         0.         
 delnfct             0.         0.          0.         0.         
 deltox              0.         0.          0.         0.         
 sa                  0.         0.          0.         0.         
 sb                  0.         0.          0.         0.         
 sd                  0.         0.          0.         0.         
 saeff               0.         0.          0.         0.         
 sbeff               0.         0.          0.         0.         
  
  
                                                                 
 element name        7:mmx         7:mtail    7:m1       7:m2    
 drain               7:cmbl        7:tail     7:tail     7:sbl_b 
 gate                0:b0sel_b0    0:b0sae    7:sbl_b    7:sbl   
 source              0:bl0         0:0        7:sbl      7:tail  
 bulk                0:vdd!        0:0        0:0        0:0     
 model               0:pmos        0:nmos     0:nmos     0:nmos  
 w eff             518.0000n     166.0000n  122.0000n  122.0000n 
 l eff              29.0000n      29.0000n   29.0000n   29.0000n 
 rd eff              0.            0.         0.         0.      
 rs eff              0.            0.         0.         0.      
 cdsat              44.0567a      15.1073a   11.4887a   11.4887a 
 cssat              44.0567a      15.1073a   11.4887a   11.4887a 
 capbd             582.4488a     223.4243a  178.5462a  178.5462a 
 capbs             477.0600a     188.2947a  152.1990a  152.1990a 
 temp               25.0000       25.0000    25.0000    25.0000  
 aic                                                             
 nf                  1.0000        1.0000     1.0000     1.0000  
 min                 0.            0.         0.         0.      
 rbdb               15.0000       15.0000    15.0000    15.0000  
 rbsb               15.0000       15.0000    15.0000    15.0000  
 rbpb                5.0000        5.0000     5.0000     5.0000  
 rbps               15.0000       15.0000    15.0000    15.0000  
 rbpd               15.0000       15.0000    15.0000    15.0000  
 trnqsmod            0.            0.         0.         0.      
 acnqsmod            0.            0.         0.         0.      
 rbodymod            1.0000        1.0000     1.0000     1.0000  
 rgatemod            1.0000        1.0000     1.0000     1.0000  
 geomod              0.            0.         0.         0.      
 rgeomod             0.            0.         0.         0.      
 delvto              0.            0.         0.         0.      
 mulu0               1.0000        1.0000     1.0000     1.0000  
 delk1               0.            0.         0.         0.      
 delnfct             0.            0.         0.         0.      
 deltox              0.            0.         0.         0.      
 sa                  0.            0.         0.         0.      
 sb                  0.            0.         0.         0.      
 sd                  0.            0.         0.         0.      
 saeff               0.            0.         0.         0.      
 sbeff               0.            0.         0.         0.      
  
  
                                                                  
 element name       12:m1      12:m2      13:m1        13:m2      
 drain               0:b3sae    0:b3sae    1:net8       1:net8    
 gate                1:net10    1:net10    0:sel_b63    0:sel_b63 
 source              0:vdd!     0:0        0:vdd!       0:0       
 bulk                0:vdd!     0:0        0:vdd!       0:0       
 model               0:pmos     0:nmos     0:pmos       0:nmos    
 w eff             342.0000n  166.0000n  342.0000n    166.0000n   
 l eff              29.0000n   29.0000n   29.0000n     29.0000n   
 rd eff              0.         0.         0.           0.        
 rs eff              0.         0.         0.           0.        
 cdsat              29.5820a   15.1073a   29.5820a     15.1073a   
 cssat              29.5820a   15.1073a   29.5820a     15.1073a   
 capbd             402.9365a  223.4243a  402.9365a    223.4243a   
 capbs             332.6773a  188.2947a  332.6773a    188.2947a   
 temp               25.0000    25.0000    25.0000      25.0000    
 aic                                                              
 nf                  1.0000     1.0000     1.0000       1.0000    
 min                 0.         0.         0.           0.        
 rbdb               15.0000    15.0000    15.0000      15.0000    
 rbsb               15.0000    15.0000    15.0000      15.0000    
 rbpb                5.0000     5.0000     5.0000       5.0000    
 rbps               15.0000    15.0000    15.0000      15.0000    
 rbpd               15.0000    15.0000    15.0000      15.0000    
 trnqsmod            0.         0.         0.           0.        
 acnqsmod            0.         0.         0.           0.        
 rbodymod            1.0000     1.0000     1.0000       1.0000    
 rgatemod            1.0000     1.0000     1.0000       1.0000    
 geomod              0.         0.         0.           0.        
 rgeomod             0.         0.         0.           0.        
 delvto              0.         0.         0.           0.        
 mulu0               1.0000     1.0000     1.0000       1.0000    
 delk1               0.         0.         0.           0.        
 delnfct             0.         0.         0.           0.        
 deltox              0.         0.         0.           0.        
 sa                  0.         0.         0.           0.        
 sb                  0.         0.         0.           0.        
 sd                  0.         0.         0.           0.        
 saeff               0.         0.         0.           0.        
 sbeff               0.         0.         0.           0.        
  
  
                                                                
 element name       14:m2      14:m0       14:m3      14:m1     
 drain               1:net10    1:net10    14:mid_a    1:net10  
 gate                0:sae      0:block3    0:sae      0:block3 
 source              0:vdd!     0:vdd!      0:0       14:mid_a  
 bulk                0:vdd!     0:vdd!      0:0        0:0      
 model               0:pmos     0:pmos      0:nmos     0:nmos   
 w eff             166.0000n  166.0000n   166.0000n  166.0000n  
 l eff              29.0000n   29.0000n    29.0000n   29.0000n  
 rd eff              0.         0.          0.         0.       
 rs eff              0.         0.          0.         0.       
 cdsat              15.1073a   15.1073a    15.1073a   15.1073a  
 cssat              15.1073a   15.1073a    15.1073a   15.1073a  
 capbd             223.4243a  223.4243a   223.4243a  223.4243a  
 capbs             188.2947a  188.2947a   188.2947a  188.2947a  
 temp               25.0000    25.0000     25.0000    25.0000   
 aic                                                            
 nf                  1.0000     1.0000      1.0000     1.0000   
 min                 0.         0.          0.         0.       
 rbdb               15.0000    15.0000     15.0000    15.0000   
 rbsb               15.0000    15.0000     15.0000    15.0000   
 rbpb                5.0000     5.0000      5.0000     5.0000   
 rbps               15.0000    15.0000     15.0000    15.0000   
 rbpd               15.0000    15.0000     15.0000    15.0000   
 trnqsmod            0.         0.          0.         0.       
 acnqsmod            0.         0.          0.         0.       
 rbodymod            1.0000     1.0000      1.0000     1.0000   
 rgatemod            1.0000     1.0000      1.0000     1.0000   
 geomod              0.         0.          0.         0.       
 rgeomod             0.         0.          0.         0.       
 delvto              0.         0.          0.         0.       
 mulu0               1.0000     1.0000      1.0000     1.0000   
 delk1               0.         0.          0.         0.       
 delnfct             0.         0.          0.         0.       
 deltox              0.         0.          0.         0.       
 sa                  0.         0.          0.         0.       
 sb                  0.         0.          0.         0.       
 sd                  0.         0.          0.         0.       
 saeff               0.         0.          0.         0.       
 sbeff               0.         0.          0.         0.       
  
  
                                                                        
 element name       15:m2         15:m0         15:m3       15:m1       
 drain               0:b3sel_b6    0:b3sel_b6   15:mid_a     0:b3sel_b6 
 gate                0:block3      1:net8        0:block3    1:net8     
 source              0:vdd!        0:vdd!        0:0        15:mid_a    
 bulk                0:vdd!        0:vdd!        0:0         0:0        
 model               0:pmos        0:pmos        0:nmos      0:nmos     
 w eff             166.0000n     166.0000n     166.0000n   166.0000n    
 l eff              29.0000n      29.0000n      29.0000n    29.0000n    
 rd eff              0.            0.            0.          0.         
 rs eff              0.            0.            0.          0.         
 cdsat              15.1073a      15.1073a      15.1073a    15.1073a    
 cssat              15.1073a      15.1073a      15.1073a    15.1073a    
 capbd             223.4243a     223.4243a     223.4243a   223.4243a    
 capbs             188.2947a     188.2947a     188.2947a   188.2947a    
 temp               25.0000       25.0000       25.0000     25.0000     
 aic                                                                    
 nf                  1.0000        1.0000        1.0000      1.0000     
 min                 0.            0.            0.          0.         
 rbdb               15.0000       15.0000       15.0000     15.0000     
 rbsb               15.0000       15.0000       15.0000     15.0000     
 rbpb                5.0000        5.0000        5.0000      5.0000     
 rbps               15.0000       15.0000       15.0000     15.0000     
 rbpd               15.0000       15.0000       15.0000     15.0000     
 trnqsmod            0.            0.            0.          0.         
 acnqsmod            0.            0.            0.          0.         
 rbodymod            1.0000        1.0000        1.0000      1.0000     
 rgatemod            1.0000        1.0000        1.0000      1.0000     
 geomod              0.            0.            0.          0.         
 rgeomod             0.            0.            0.          0.         
 delvto              0.            0.            0.          0.         
 mulu0               1.0000        1.0000        1.0000      1.0000     
 delk1               0.            0.            0.          0.         
 delnfct             0.            0.            0.          0.         
 deltox              0.            0.            0.          0.         
 sa                  0.            0.            0.          0.         
 sb                  0.            0.            0.          0.         
 sd                  0.            0.            0.          0.         
 saeff               0.            0.            0.          0.         
 sbeff               0.            0.            0.          0.         
  
  
                                                                
 element name       16:m1      16:m2      17:m1       17:m2     
 drain               0:b0sae    0:b0sae    2:net8      2:net8   
 gate                2:net10    2:net10    0:sel_b0    0:sel_b0 
 source              0:vdd!     0:0        0:vdd!      0:0      
 bulk                0:vdd!     0:0        0:vdd!      0:0      
 model               0:pmos     0:nmos     0:pmos      0:nmos   
 w eff             342.0000n  166.0000n  342.0000n   166.0000n  
 l eff              29.0000n   29.0000n   29.0000n    29.0000n  
 rd eff              0.         0.         0.          0.       
 rs eff              0.         0.         0.          0.       
 cdsat              29.5820a   15.1073a   29.5820a    15.1073a  
 cssat              29.5820a   15.1073a   29.5820a    15.1073a  
 capbd             402.9365a  223.4243a  402.9365a   223.4243a  
 capbs             332.6773a  188.2947a  332.6773a   188.2947a  
 temp               25.0000    25.0000    25.0000     25.0000   
 aic                                                            
 nf                  1.0000     1.0000     1.0000      1.0000   
 min                 0.         0.         0.          0.       
 rbdb               15.0000    15.0000    15.0000     15.0000   
 rbsb               15.0000    15.0000    15.0000     15.0000   
 rbpb                5.0000     5.0000     5.0000      5.0000   
 rbps               15.0000    15.0000    15.0000     15.0000   
 rbpd               15.0000    15.0000    15.0000     15.0000   
 trnqsmod            0.         0.         0.          0.       
 acnqsmod            0.         0.         0.          0.       
 rbodymod            1.0000     1.0000     1.0000      1.0000   
 rgatemod            1.0000     1.0000     1.0000      1.0000   
 geomod              0.         0.         0.          0.       
 rgeomod             0.         0.         0.          0.       
 delvto              0.         0.         0.          0.       
 mulu0               1.0000     1.0000     1.0000      1.0000   
 delk1               0.         0.         0.          0.       
 delnfct             0.         0.         0.          0.       
 deltox              0.         0.         0.          0.       
 sa                  0.         0.         0.          0.       
 sb                  0.         0.         0.          0.       
 sd                  0.         0.         0.          0.       
 saeff               0.         0.         0.          0.       
 sbeff               0.         0.         0.          0.       
  
  
                                                                
 element name       18:m2      18:m0       18:m3      18:m1     
 drain               2:net10    2:net10    18:mid_a    2:net10  
 gate                0:sae      0:block0    0:sae      0:block0 
 source              0:vdd!     0:vdd!      0:0       18:mid_a  
 bulk                0:vdd!     0:vdd!      0:0        0:0      
 model               0:pmos     0:pmos      0:nmos     0:nmos   
 w eff             166.0000n  166.0000n   166.0000n  166.0000n  
 l eff              29.0000n   29.0000n    29.0000n   29.0000n  
 rd eff              0.         0.          0.         0.       
 rs eff              0.         0.          0.         0.       
 cdsat              15.1073a   15.1073a    15.1073a   15.1073a  
 cssat              15.1073a   15.1073a    15.1073a   15.1073a  
 capbd             223.4243a  223.4243a   223.4243a  223.4243a  
 capbs             188.2947a  188.2947a   188.2947a  188.2947a  
 temp               25.0000    25.0000     25.0000    25.0000   
 aic                                                            
 nf                  1.0000     1.0000      1.0000     1.0000   
 min                 0.         0.          0.         0.       
 rbdb               15.0000    15.0000     15.0000    15.0000   
 rbsb               15.0000    15.0000     15.0000    15.0000   
 rbpb                5.0000     5.0000      5.0000     5.0000   
 rbps               15.0000    15.0000     15.0000    15.0000   
 rbpd               15.0000    15.0000     15.0000    15.0000   
 trnqsmod            0.         0.          0.         0.       
 acnqsmod            0.         0.          0.         0.       
 rbodymod            1.0000     1.0000      1.0000     1.0000   
 rgatemod            1.0000     1.0000      1.0000     1.0000   
 geomod              0.         0.          0.         0.       
 rgeomod             0.         0.          0.         0.       
 delvto              0.         0.          0.         0.       
 mulu0               1.0000     1.0000      1.0000     1.0000   
 delk1               0.         0.          0.         0.       
 delnfct             0.         0.          0.         0.       
 deltox              0.         0.          0.         0.       
 sa                  0.         0.          0.         0.       
 sb                  0.         0.          0.         0.       
 sd                  0.         0.          0.         0.       
 saeff               0.         0.          0.         0.       
 sbeff               0.         0.          0.         0.       
  
  
                                                                        
 element name       19:m2         19:m0         19:m3       19:m1       
 drain               0:b0sel_b0    0:b0sel_b0   19:mid_a     0:b0sel_b0 
 gate                0:block0      2:net8        0:block0    2:net8     
 source              0:vdd!        0:vdd!        0:0        19:mid_a    
[...]



 subckt     xdecoder.x   xdecoder.x   xdecoder.x   xdecoder.x   xdecoder.x
 element  121:m1       121:m7       121:m6       121:m0       122:m10     
 model      0:nmos       0:pmos       0:pmos       0:pmos       0:nmos    
 region         Cutoff       Linear       Cutoff       Linear       Cutoff
  id         520.1765p   -321.4214p    -29.6921f   -321.4214p    345.1002p
  ibs        -46.1216f   -1.222e-27    1.111e-28   -1.222e-27    1.559e-26
  ibd       -700.0108f      2.6885a      2.6885a      2.6885a    -16.6251f
  vgs        -46.0989m   -699.9885m      0.        -699.9885m     11.4731u
  vds        653.8869m     -2.6866u     -2.6866u     -2.6866u     16.6187m
  vbs        -46.1104m      0.           0.           0.           0.     
  vth        337.0015m   -310.7632m   -310.7632m   -310.7632m    369.4619m
  vdsat       40.0363m   -322.9392m    -46.2174m   -322.9392m     40.2310m
  vod       -383.1004m   -389.2254m    310.7632m   -389.2254m   -369.4504m
  beta         2.9257m    361.2351u    367.4758u    361.2351u      2.8097m
  gam eff    441.0000m    394.0000m    394.0000m    394.0000m    441.0000m
  gm          13.4469n    631.9107p    779.8061f    631.9107p      8.8285n
  gds          1.0098n    119.6390u     11.0517n    119.6390u     15.8262n
  gmb          3.8885n    190.4105p    187.1277f    190.4105p      2.6251n
  cdtot      157.6982a    364.4947a    258.8319a    364.4947a    194.8975a
  cgtot       82.2458a    246.6036a    136.6818a    246.6036a     96.9042a
  cstot      170.5249a    259.3998a    228.0318a    259.3998a    174.4332a
  cbtot      281.0934a    393.5831a    393.7701a    393.5831a    307.5426a
  cgs         38.1086a    138.8756a     57.4452a    138.8756a     40.0139a
  cgd         26.5795a    106.7177a     57.4431a    106.7177a     39.3327a



 subckt     xdecoder.x   xdecoder.x   xdecoder.x   xdecoder.x   xdecoder.x
 element  122:m9       122:m1       122:m7       122:m6       122:m0      
 model      0:nmos       0:nmos       0:pmos       0:pmos       0:pmos    
 region         Cutoff       Cutoff       Linear       Linear       Linear
  id         345.1290p    345.1907p   -155.7107p   -155.7143p   -155.7107p
  ibs        -16.6251f    -57.7257f   -1.222e-27   -1.222e-27   -1.222e-27
  ibd        -57.7257f   -700.0122f      1.3024a      1.3024a      1.3024a
  vgs        -16.6187m    -57.7022m   -699.9885m   -700.0000m   -699.9885m
  vds         41.0950m    642.2850m     -1.3015u     -1.3015u     -1.3015u
  vbs        -16.6187m    -57.7137m      0.           0.           0.     
  vth        371.7927m    340.5230m   -310.7633m   -310.7633m   -310.7633m
  vdsat       40.2552m     40.0648m   -322.9392m   -322.9464m   -322.9392m
  vod       -388.4114m   -398.2253m   -389.2252m   -389.2367m   -389.2252m
  beta         2.8014m      2.9130m    361.2351u    361.2334u    361.2351u
  gam eff    441.0000m    441.0000m    394.0000m    394.0000m    394.0000m
  gm           8.8806n      8.9577n    306.1249p    306.1192p    306.1249p
  gds          3.6249n    672.7761p    119.6394u    119.6421u    119.6394u
  gmb          2.6331n      2.5937n     92.2432p     92.2426p     92.2432p
  cdtot      191.1537a    157.6981a    364.4955a    364.4963a    364.4955a
  cgtot       94.5167a     81.7644a    246.6037a    246.6042a    246.6037a
  cstot      173.0165a    169.5579a    259.3994a    259.3993a    259.3994a
  cbtot      304.7698a    280.6078a    393.5832a    393.5832a    393.5832a
  cgs         39.3330a     37.6271a    138.8753a    138.8755a    138.8753a
  cgd         37.6259a     26.5795a    106.7180a    106.7184a    106.7180a



 subckt     xdecoder.x   xdecoder.x   xdecoder.x   xdecoder.x   xdecoder.x
 element  123:m10      123:m9       123:m1       123:m7       123:m6      
 model      0:nmos       0:nmos       0:nmos       0:pmos       0:pmos    
 region         Cutoff       Linear       Cutoff       Linear       Cutoff
  id         628.8219p    574.4993p    520.1765p   -321.4214p    -29.6921f
  ibs        4.326e-26    -46.1199f    -46.1216f   -1.222e-27    1.111e-28
  ibd        -46.1199f    -46.1216f   -700.0108f      2.6885a      2.6885a
  vgs         11.4731u    653.8913m    -46.0989m   -699.9885m      0.     
  vds         46.1087m      1.7536u    653.8869m     -2.6866u     -2.6866u
  vbs          0.         -46.1087m    -46.1104m      0.           0.     
  vth        367.4499m    381.6091m    337.0015m   -310.7632m   -310.7632m
  vdsat       40.2177m    179.9529m     40.0363m   -322.9392m    -46.2174m
  vod       -367.4385m    272.2822m   -383.1004m   -389.2254m    310.7632m
  beta         2.8168m      2.5400m      2.9257m    361.2351u    367.4758u
  gam eff    441.0000m    441.0000m    441.0000m    394.0000m    394.0000m
  gm          16.0830n      1.0263n     13.4469n    631.9107p    779.8061f
  gds          5.2493n    327.6114u      1.0098n    119.6390u     11.0517n
  gmb          4.7609n    334.8075p      3.8885n    190.4105p    187.1277f
  cdtot      192.2000a    263.3918a    157.6982a    364.4947a    258.8319a
  cgtot       95.6793a    166.1092a     82.2458a    246.6036a    136.6818a
  cstot      174.4332a    194.0986a    170.5249a    259.3998a    228.0318a
  cbtot      306.0700a    303.8648a    281.0934a    393.5831a    393.7701a
  cgs         40.0139a     92.3092a     38.1086a    138.8756a     57.4452a
  cgd         38.1078a     72.8408a     26.5795a    106.7177a     57.4431a



 subckt     xdecoder.x   xdecoder.x   xdecoder.x   xdecoder.x   xdecoder.x
 element  123:m0       124:m10      124:m9       124:m1       124:m7      
 model      0:pmos       0:nmos       0:nmos       0:nmos       0:pmos    
 region         Linear       Cutoff       Cutoff       Cutoff       Linear
  id        -321.4214p    345.1002p    345.1290p    345.1907p   -155.7107p
  ibs       -1.222e-27    1.559e-26    -16.6251f    -57.7257f   -1.222e-27
  ibd          2.6885a    -16.6251f    -57.7257f   -700.0122f      1.3024a
  vgs       -699.9885m     11.4731u    -16.6187m    -57.7022m   -699.9885m
  vds         -2.6866u     16.6187m     41.0950m    642.2850m     -1.3015u
  vbs          0.           0.         -16.6187m    -57.7137m      0.     
  vth       -310.7632m    369.4619m    371.7927m    340.5230m   -310.7633m
  vdsat     -322.9392m     40.2310m     40.2552m     40.0648m   -322.9392m
  vod       -389.2254m   -369.4504m   -388.4114m   -398.2253m   -389.2252m
  beta       361.2351u      2.8097m      2.8014m      2.9130m    361.2351u
  gam eff    394.0000m    441.0000m    441.0000m    441.0000m    394.0000m
  gm         631.9107p      8.8285n      8.8806n      8.9577n    306.1249p
  gds        119.6390u     15.8262n      3.6249n    672.7761p    119.6394u
  gmb        190.4105p      2.6251n      2.6331n      2.5937n     92.2432p
  cdtot      364.4947a    194.8975a    191.1537a    157.6981a    364.4955a
  cgtot      246.6036a     96.9042a     94.5167a     81.7644a    246.6037a
  cstot      259.3998a    174.4332a    173.0165a    169.5579a    259.3994a
  cbtot      393.5831a    307.5426a    304.7698a    280.6078a    393.5832a
  cgs        138.8756a     40.0139a     39.3330a     37.6271a    138.8753a
  cgd        106.7177a     39.3327a     37.6259a     26.5795a    106.7180a



 subckt     xdecoder.x   xdecoder.x   xclk_gen.x   xclk_gen.x   xclk_gen.x
 element  124:m6       124:m0       128:m_0      128:m_1      129:m_0     
 model      0:pmos       0:pmos       0:nmos       0:pmos       0:nmos    
 region         Linear       Linear       Cutoff       Linear       Linear
  id        -155.7143p   -155.7107p      4.3206n     -5.3360n     26.8934n
  ibs       -1.222e-27   -1.222e-27    6.568e-25   -4.340e-27    1.235e-26
  ibd          1.3024a      1.3024a   -700.0085f     12.5037a    -45.9297a
  vgs       -700.0000m   -699.9885m      0.        -700.0000m    699.9875m
  vds         -1.3015u     -1.3015u    699.9875m    -12.4742u     11.4731u
  vbs          0.           0.           0.           0.           0.     
  vth       -310.7633m   -310.7633m    322.8420m   -310.7623m    370.5949m
  vdsat     -322.9464m   -322.9392m     39.9532m   -323.1697m    206.2743m
  vod       -389.2367m   -389.2252m   -322.8420m   -389.2377m    329.3926m
  beta       361.2334u    361.2351u      4.9420m      1.2994m     16.6812m
  gam eff    394.0000m    394.0000m    441.0000m    394.0000m    441.0000m
  gm         306.1192p    306.1249p    109.4825n     10.4284n     34.2589n
  gds        119.6421u    119.6394u      8.2225n    427.7557u      2.3440m
  gmb         92.2426p     92.2432p     31.4704n      3.1421n     12.2890n
  cdtot      364.4963a    364.4955a    231.7528a      1.1703f      1.6473f
  cgtot      246.6042a    246.6037a    139.2019a    885.1605a      1.1119f
  cstot      259.3993a    259.3994a    255.0948a    797.5023a      1.1600f
  cbtot      393.5832a    393.5832a    404.9591a      1.1374f      1.7662f
  cgs        138.8755a    138.8753a     66.4247a    499.5751a    615.7214a
  cgd        106.7184a    106.7180a     44.1218a    383.8795a    494.7642a



 subckt     xclk_gen.x   xclk_gen.x   xclk_gen.x   xclk_gen.x   xclk_gen.x
 element  129:m_1      130:m_0      130:m_1      131:m_0      131:m_1     
 model      0:pmos       0:nmos       0:pmos       0:nmos       0:pmos    
 region         Cutoff       Cutoff       Linear       Linear       Cutoff
  id         -27.5003n     69.1500n    -85.3960n    448.6321n   -440.0050n
  ibs       -2.631e-24    1.051e-23   -6.944e-26    1.976e-25   -4.210e-23
  ibd          2.8002p    -11.2001p    200.1111a   -766.1937a     44.8032p
  vgs        -12.4742u     11.4731u   -699.9885m    699.9875m    -12.4774u
  vds       -699.9885m    699.9875m    -12.4774u     11.9621u   -699.9880m
  vbs          0.           0.           0.           0.           0.     
  vth       -251.2176m    322.8420m   -310.7623m    370.5949m   -251.2176m
  vdsat      -46.1542m     39.9532m   -323.1624m    206.2743m    -46.1542m
  vod        251.2051m   -322.8306m   -389.2262m    329.3927m    251.2051m
  beta         5.7846m     79.0721m     20.7911m    266.8997m     92.5543m
  gam eff    394.0000m    441.0000m    394.0000m    441.0000m    394.0000m
  gm         707.3202n      1.7522u    166.9007n    571.5023n     11.3171u
  gds         67.7552n    131.5983n      6.8439m     37.5037m      1.0841u
  gmb        161.3779n    503.6685n     50.2863n    205.0027n      2.5820u
  cdtot        2.5043f      3.7080f     18.7252f     26.3573f     40.0690f
  cgtot        1.6808f      2.2272f     14.1625f     17.7902f     26.8925f
  cstot        2.7387f      4.0815f     12.7600f     18.5601f     43.8199f
  cbtot        4.1741f      6.4793f     18.1988f     28.2587f     66.7850f
  cgs        826.7441a      1.0628f      7.9932f      9.8516f     13.2279f
  cgd        548.1969a    705.9508a      6.1421f      7.9162f      8.7712f



 subckt     xa0_gen.xg   xa0_gen.xg   xa0_gen.xg   xa0_gen.xg   xa0_gen.xg
 element  132:m_0      132:m_1      133:m_0      133:m_1      134:m_0     
 model      0:nmos       0:pmos       0:nmos       0:pmos       0:nmos    
 region         Cutoff       Linear       Linear       Cutoff       Cutoff
  id           4.3206n     -5.3360n     26.8934n    -27.5003n     69.1500n
  ibs        6.568e-25   -4.340e-27    1.235e-26   -2.631e-24    1.051e-23
  ibd       -700.0085f     12.5037a    -45.9297a      2.8002p    -11.2001p
  vgs          0.        -700.0000m    699.9875m    -12.4742u     11.4731u
  vds        699.9875m    -12.4742u     11.4731u   -699.9885m    699.9875m
  vbs          0.           0.           0.           0.           0.     
  vth        322.8420m   -310.7623m    370.5949m   -251.2176m    322.8420m
  vdsat       39.9532m   -323.1697m    206.2743m    -46.1542m     39.9532m
  vod       -322.8420m   -389.2377m    329.3926m    251.2051m   -322.8306m
  beta         4.9420m      1.2994m     16.6812m      5.7846m     79.0721m
  gam eff    441.0000m    394.0000m    441.0000m    394.0000m    441.0000m
  gm         109.4825n     10.4284n     34.2589n    707.3202n      1.7522u
  gds          8.2225n    427.7557u      2.3440m     67.7552n    131.5983n
  gmb         31.4704n      3.1421n     12.2890n    161.3779n    503.6685n
  cdtot      231.7528a      1.1703f      1.6473f      2.5043f      3.7080f
  cgtot      139.2019a    885.1605a      1.1119f      1.6808f      2.2272f
  cstot      255.0948a    797.5023a      1.1600f      2.7387f      4.0815f
  cbtot      404.9591a      1.1374f      1.7662f      4.1741f      6.4793f
  cgs         66.4247a    499.5751a    615.7214a    826.7441a      1.0628f
  cgd         44.1218a    383.8795a    494.7642a    548.1969a    705.9508a



 subckt     xa0_gen.xg   xa0_gen.xg   xa0_gen.xg   xa255_gen.   xa255_gen.
 element  134:m_1      135:m_0      135:m_1      136:m_0      136:m_1     
 model      0:pmos       0:nmos       0:pmos       0:nmos       0:pmos    
 region         Linear       Linear       Cutoff       Cutoff       Linear
  id         -85.3960n    448.6321n   -440.0050n      4.3206n     -5.3360n
  ibs       -6.944e-26    1.976e-25   -4.210e-23    6.568e-25   -4.340e-27
  ibd        200.1111a   -766.1937a     44.8032p   -700.0085f     12.5037a
  vgs       -699.9885m    699.9875m    -12.4774u      0.        -700.0000m
  vds        -12.4774u     11.9621u   -699.9880m    699.9875m    -12.4742u
  vbs          0.           0.           0.           0.           0.     
  vth       -310.7623m    370.5949m   -251.2176m    322.8420m   -310.7623m
  vdsat     -323.1624m    206.2743m    -46.1542m     39.9532m   -323.1697m
  vod       -389.2262m    329.3927m    251.2051m   -322.8420m   -389.2377m
  beta        20.7911m    266.8997m     92.5543m      4.9420m      1.2994m
  gam eff    394.0000m    441.0000m    394.0000m    441.0000m    394.0000m
  gm         166.9007n    571.5023n     11.3171u    109.4825n     10.4284n
  gds          6.8439m     37.5037m      1.0841u      8.2225n    427.7557u
  gmb         50.2863n    205.0027n      2.5820u     31.4704n      3.1421n
  cdtot       18.7252f     26.3573f     40.0690f    231.7528a      1.1703f
  cgtot       14.1625f     17.7902f     26.8925f    139.2019a    885.1605a
  cstot       12.7600f     18.5601f     43.8199f    255.0948a    797.5023a
  cbtot       18.1988f     28.2587f     66.7850f    404.9591a      1.1374f
  cgs          7.9932f      9.8516f     13.2279f     66.4247a    499.5751a
  cgd          6.1421f      7.9162f      8.7712f     44.1218a    383.8795a



 subckt     xa255_gen.   xa255_gen.   xa255_gen.   xa255_gen.   xa255_gen.
 element  137:m_0      137:m_1      138:m_0      138:m_1      139:m_0     
 model      0:nmos       0:pmos       0:nmos       0:pmos       0:nmos    
 region         Linear       Cutoff       Cutoff       Linear       Linear
  id          26.8934n    -27.5003n     69.1500n    -85.3960n    448.6321n
  ibs        1.235e-26   -2.631e-24    1.051e-23   -6.944e-26    1.976e-25
  ibd        -45.9297a      2.8002p    -11.2001p    200.1111a   -766.1937a
  vgs        699.9875m    -12.4742u     11.4731u   -699.9885m    699.9875m
  vds         11.4731u   -699.9885m    699.9875m    -12.4774u     11.9621u
  vbs          0.           0.           0.           0.           0.     
  vth        370.5949m   -251.2176m    322.8420m   -310.7623m    370.5949m
  vdsat      206.2743m    -46.1542m     39.9532m   -323.1624m    206.2743m
  vod        329.3926m    251.2051m   -322.8306m   -389.2262m    329.3927m
  beta        16.6812m      5.7846m     79.0721m     20.7911m    266.8997m
  gam eff    441.0000m    394.0000m    441.0000m    394.0000m    441.0000m
  gm          34.2589n    707.3202n      1.7522u    166.9007n    571.5023n
  gds          2.3440m     67.7552n    131.5983n      6.8439m     37.5037m
  gmb         12.2890n    161.3779n    503.6685n     50.2863n    205.0027n
  cdtot        1.6473f      2.5043f      3.7080f     18.7252f     26.3573f
  cgtot        1.1119f      1.6808f      2.2272f     14.1625f     17.7902f
  cstot        1.1600f      2.7387f      4.0815f     12.7600f     18.5601f
  cbtot        1.7662f      4.1741f      6.4793f     18.1988f     28.2587f
  cgs        615.7214a    826.7441a      1.0628f      7.9932f      9.8516f
  cgd        494.7642a    548.1969a    705.9508a      6.1421f      7.9162f



 subckt     xa255_gen.
 element  139:m_1     
 model      0:pmos    
 region         Cutoff
  id        -440.0050n
  ibs       -4.210e-23
  ibd         44.8032p
  vgs        -12.4774u
  vds       -699.9880m
  vbs          0.     
  vth       -251.2176m
  vdsat      -46.1542m
  vod        251.2051m
  beta        92.5543m
  gam eff    394.0000m
  gm          11.3171u
  gds          1.0841u
  gmb          2.5820u
  cdtot       40.0690f
  cgtot       26.8925f
  cstot       43.8199f
  cbtot       66.7850f
  cgs         13.2279f
  cgd          8.7712f



 ******  
 part 2

  ******  transient analysis tnom=  25.000 temp=  27.000 *****
 max_bit_b=  54.5170m    at=   1.4383n
             from=   0.         to=   5.0000n
  **warning** (part2_decoder_Blocked_Slowed_Switched_WR_Voltages.hsp:110) .MEASURE  wl0_rise never reached the trigger value, Measurement failed!
  **warning** (part2_decoder_Blocked_Slowed_Switched_WR_Voltages.hsp:110) .MEASURE  wl0_rise never reached the target value, Measurement failed!
  **warning** (part2_decoder_Blocked_Slowed_Switched_WR_Voltages.hsp:110) Target event is undefined. Please specify a valid event. Measure failed.
 wl0_width= 474.1344p  targ=   1.5264n   trig=   1.0523n
 bl0_split=  14.2419m    at=   1.2101n
             from= 500.0000p    to=   1.5000n
 bl1_split=-113.5089u    at=   1.3255n
             from= 500.0000p    to=   1.5000n
 clk-out0= 742.1344p  targ=   1.3299n   trig= 587.7174p
 precharge= failed       targ= not found    trig=   1.2100n
 sae-out0= 154.8518p  targ=   1.3299n   trig=   1.1750n
 out0-width=  77.0063p  targ=   1.4069n   trig=   1.3299n
 idsat_avg= -91.2688p  from=   2.0000n     to=   3.0000n
 write_core_power=-700.0000n  from=   2.0000n     to=   3.0000n
 vcell_power=-225.4079u  from=   2.0000n     to=   3.0000n
 mem_core_power=-226.1079u

          ***** job concluded
1****** HSPICE -- F-2011.09-SP2 32-BIT (Feb 27 2012) linux ******               
 ******  
 part 2

  ******  job statistics summary tnom=  25.000 temp=  27.000 *****
  
  
 ******  Machine Information  ******
 CPU:
 model name	: Intel(R) Core(TM)2 Duo CPU     E8500  @ 3.16GHz
 cpu MHz	: 3158.797
  
 OS:
 Linux version 3.2.0-30-generic (buildd@batsu) (gcc version 4.6.3 (Ubuntu/Linaro
  4.6.3-1ubuntu5) ) #48-Ubuntu SMP Fri Aug 24 16:52:48 UTC 2012


  ******  HSPICE Threads Information  ******

  Command Line Threads Count :     1
  Available CPU Count        :     2
  Actual Threads Count       :     1


  ******  Circuit Statistics  ******
  # nodes       =    1973 # elements   =     536
  # resistors   =       1 # capacitors =      54 # inductors   =       0
  # mutual_inds =       0 # vccs       =       0 # vcvs        =       3
  # cccs        =       6 # ccvs       =       0 # volt_srcs   =      36
  # curr_srcs   =       0 # diodes     =       0 # bjts        =       0
  # jfets       =       0 # mosfets    =     436 # U elements  =       0
  # T elements  =       0 # W elements =       0 # B elements  =       0
  # S elements  =       0 # P elements =       0 # va device   =       0
  # vector_srcs =       0


  ******  Runtime Statistics (seconds)  ******

  analysis           time    # points   tot. iter  conv.iter
  op point           0.30           1          98
  transient          9.38       16667       16227        1777 rev=       254
  readin             0.00
  errchk             0.08
  setup              0.00
  output             0.00


           peak memory used         93.12 megabytes
           total cpu time            9.74 seconds
           total elapsed time       10.47 seconds
           job started at     16:00:11 03/14/2013
           job ended   at     16:00:22 03/14/2013


 lic: Release hspice token(s) 
