Using: /usr/class/ee/synopsys/hspice/F-2011.09-SP2/hspice/linux/hspice part2_blocked_wordline_4.hsp
 ****** HSPICE -- F-2011.09-SP2 32-BIT (Feb 27 2012) linux ******               
  Copyright (C) 2011 Synopsys, Inc. All Rights Reserved.                        
  Unpublished-rights reserved under US copyright laws.
  This program is protected by law and is subject to the
  terms and conditions of the license agreement from Synopsys.
  Use of this program is your acceptance to be bound by the
  license agreement. HSPICE is the trademark of Synopsys, Inc.
  Input File: part2_blocked_wordline_4.hsp                                      
  Command line options: part2_blocked_wordline_4.hsp
 lic:  
 lic: FLEXlm: v10.8 
 lic: USER:   nighting             HOSTNAME: corn08.stanford.edu 
 lic: HOSTID: 001b213a6aed         PID:      13937 
 lic: Using FLEXlm license file: 
 lic: 27000@cadlic0.stanford.edu 
 lic: Checkout 1 hspice 
 lic: License/Maintenance for hspice will expire on 16-nov-2013/2012.06 
 lic: 2(in_use)/100(total) FLOATING license(s) on SERVER cadlic0.stanford.edu 
 lic:   
 Init: read install configuration file: /usr/class/ee/synopsys/hspice/F-2011.09-SP2/hspice/meta.cfg

 **warning**  runlvl smaller than 5, reset to 5  when accurate turned on
 scientific notation:
 a=10**-18  f=10**-15  p=10**-12  n=10**-9  u=10**-6
 m=10**-3   k=10**3    x=10**6    g=10**9 
  **warning** (/afs/ir/users/n/i/nighting/ee313/netlist/projectPart2.testrig_blocked_wordline_4.ckt:48) Global net name, "vdd", in subckt pin list. The pin will be connected to the local net. Recommend to not use global net names in subckt pin lists.

 **warning**  runlvl smaller than 5, reset to 5  when accurate turned on
1****** HSPICE -- F-2011.09-SP2 32-BIT (Feb 27 2012) linux ******               
 ******  
 part 2

  ******  circuit name directory
 circuit number to circuit name directory
   number circuitname                     definition         multiplier
        0 main circuit
        1 xblock_decoder.                 block_decoder      1.00 
        2 xarray.                         array_blocked_wordline_4
                                                                 1.00 
        3 xdecoder.                       decoder            1.00 
        4 xsense63.                       sense              1.00 
        5 xsense0.                        sense              1.00 
        6 xclk_gen.                       clk_gen            1.00 
        7 xa0_gen.                        a0_gen             1.00 
        8 xa255_gen.                      a255_gen           1.00 
        9 xblock_decoder.xu17.            inv_pcell_01       1.00 
       10 xblock_decoder.xu16.            inv_pcell_01       1.00 
       11 xblock_decoder.xu15.            inv_pcell_01       1.00 
       12 xblock_decoder.xu14.            inv_pcell_01       1.00 
       13 xblock_decoder.xu9.             inv_pcell_01       1.00 
       14 xblock_decoder.xu6.             inv_pcell_01       1.00 
       15 xblock_decoder.xu5.             inv_pcell_01       1.00 
       16 xblock_decoder.xu2.             inv_pcell_01       1.00 
       17 xblock_decoder.xu13.            nand_pcell_2       1.00 
       18 xblock_decoder.xu12.            nand_pcell_2       1.00 
       19 xblock_decoder.xu11.            nand_pcell_2       1.00 
       20 xblock_decoder.xu10.            nand_pcell_2       1.00 
       21 xblock_decoder.xu8.             nand_pcell_2       1.00 
       22 xblock_decoder.xu3.             nand_pcell_2       1.00 
       23 xblock_decoder.xu4.             nand_pcell_2       1.00 
       24 xblock_decoder.xu7.             nand_pcell_2       1.00 
       25 xarray.xmctr.                   mc                 1.00 
       26 xarray.xmcmr.                   mc               254.00 
       27 xarray.xmcbr.                   mc                 1.00 
       28 xarray.xmctb3dum.               mc                63.00 
       29 xarray.xmcmb3dum.               mc                16.00k
       30 xarray.xmcbb3dum.               mc                63.00 
       31 xarray.xmcbb2dum.               mc                64.00 
       32 xarray.xmctb2dum.               mc                64.00 
       33 xarray.xmcmb2dum.               mc                16.26k
       34 xarray.xmctb1dum.               mc                64.00 
       35 xarray.xmcbb0dum.               mc                63.00 
       36 xarray.xmcbl.                   mc                 1.00 
       37 xarray.xmcml.                   mc               254.00 
       38 xarray.xmcmb0dum.               mc                16.00k
       39 xarray.xmcmb1dum.               mc                16.26k
       40 xarray.xmcbb1dum.               mc                64.00 
       41 xarray.xmctb0dum.               mc                63.00 
       42 xarray.xmctl.                   mc                 1.00 
       43 xarray.xwriter.                 write              1.00 
       44 xarray.xwriteb3dum.             write             63.00 
       45 xarray.xwriteb1dum.             write             64.00 
       46 xarray.xwriteb2dum.             write             64.00 
       47 xarray.xwriteb0dum.             write             63.00 
       48 xarray.xwritel.                 write              1.00 
       49 xdecoder.xpredecoder416.        predecode_416      1.00 
       50 xdecoder.xdecoder_stage.        decode_stage       1.00 
       51 xdecoder.xpredecoder24.         predecode_24       1.00 
       52 xsense63.xu1.                   inv_pcell_11       1.00 
       53 xsense63.xu0.                   inv_pcell_11       1.00 
       54 xsense63.xu3.                   inv_pcell_12       1.00 
       55 xsense63.xu2.                   inv_pcell_12       1.00 
       56 xsense0.xu1.                    inv_pcell_11       1.00 
       57 xsense0.xu0.                    inv_pcell_11       1.00 
       58 xsense0.xu3.                    inv_pcell_12       1.00 
       59 xsense0.xu2.                    inv_pcell_12       1.00 
       60 xclk_gen.xgen.                  signal_gen         1.00 
       61 xa0_gen.xgen.                   signal_gen         1.00 
       62 xa255_gen.xgen.                 signal_gen         1.00 
       63 xarray.xwriter.xu0.             inv_pcell_0        1.00 
       64 xarray.xwriter.xu2.             inv_pcell_1        1.00 
       65 xarray.xwriter.xu1.             inv_pcell_1        1.00 
       66 xarray.xwriteb3dum.xu0.         inv_pcell_0       63.00 
       67 xarray.xwriteb3dum.xu2.         inv_pcell_1       63.00 
       68 xarray.xwriteb3dum.xu1.         inv_pcell_1       63.00 
       69 xarray.xwriteb1dum.xu0.         inv_pcell_0       64.00 
       70 xarray.xwriteb1dum.xu2.         inv_pcell_1       64.00 
       71 xarray.xwriteb1dum.xu1.         inv_pcell_1       64.00 
       72 xarray.xwriteb2dum.xu0.         inv_pcell_0       64.00 
       73 xarray.xwriteb2dum.xu2.         inv_pcell_1       64.00 
       74 xarray.xwriteb2dum.xu1.         inv_pcell_1       64.00 
       75 xarray.xwriteb0dum.xu0.         inv_pcell_0       63.00 
       76 xarray.xwriteb0dum.xu2.         inv_pcell_1       63.00 
       77 xarray.xwriteb0dum.xu1.         inv_pcell_1       63.00 
       78 xarray.xwritel.xu0.             inv_pcell_0        1.00 
       79 xarray.xwritel.xu2.             inv_pcell_1        1.00 
       80 xarray.xwritel.xu1.             inv_pcell_1        1.00 
       81 xdecoder.xpredecoder416.xi16.   nand_pcell_4       1.00 
       82 xdecoder.xpredecoder416.xi15.   nand_pcell_4       1.00 
       83 xdecoder.xpredecoder416.xi17.   nand_pcell_4       1.00 
       84 xdecoder.xpredecoder416.xi18.   nand_pcell_4       1.00 
       85 xdecoder.xpredecoder416.xu15.   inv_pcell_5        1.00 
       86 xdecoder.xpredecoder416.xu14.   inv_pcell_5        1.00 
       87 xdecoder.xpredecoder416.xu13.   inv_pcell_5        1.00 
       88 xdecoder.xpredecoder416.xu12.   inv_pcell_5        1.00 
       89 xdecoder.xpredecoder416.xu11.   inv_pcell_6        1.00 
       90 xdecoder.xpredecoder416.xu10.   inv_pcell_6        1.00 
       91 xdecoder.xpredecoder416.xu9.    inv_pcell_6        1.00 
       92 xdecoder.xpredecoder416.xu8.    inv_pcell_6        1.00 
       93 xdecoder.xpredecoder416.xu0.    inv_pcell_7        1.00 
       94 xdecoder.xpredecoder416.xu1.    inv_pcell_7        1.00 
       95 xdecoder.xpredecoder416.xu2.    inv_pcell_7        1.00 
       96 xdecoder.xpredecoder416.xu3.    inv_pcell_7        1.00 
       97 xdecoder.xdecoder_stage.xu3.    nand_pcell_8       1.00 
       98 xdecoder.xdecoder_stage.xu2.    nand_pcell_8       1.00 
       99 xdecoder.xdecoder_stage.xu1.    nand_pcell_8       1.00 
      100 xdecoder.xdecoder_stage.xu0.    nand_pcell_8       1.00 
      101 xdecoder.xdecoder_stage.xu8.    inv_pcell_9        1.00 
      102 xdecoder.xdecoder_stage.xu7.    inv_pcell_9        1.00 
      103 xdecoder.xdecoder_stage.xu6.    inv_pcell_9        1.00 
      104 xdecoder.xdecoder_stage.xu5.    inv_pcell_9        1.00 
      105 xdecoder.xpredecoder24.xu3.     inv_pcell_10       1.00 
      106 xdecoder.xpredecoder24.xu2.     inv_pcell_10       1.00 
      107 xdecoder.xpredecoder24.xu1.     inv_pcell_10       1.00 
      108 xdecoder.xpredecoder24.xu0.     inv_pcell_10       1.00 
      109 xdecoder.xpredecoder24.xi36.    nand3              1.00 
      110 xdecoder.xpredecoder24.xi37.    nand3              1.00 
      111 xdecoder.xpredecoder24.xi38.    nand3              1.00 
      112 xdecoder.xpredecoder24.xi39.    nand3              1.00 
      113 xclk_gen.xgen.x_0.              inv_chain_stimulus
                                                                 1.00 
      114 xa0_gen.xgen.x_0.               inv_chain_stimulus
                                                                 1.00 
      115 xa255_gen.xgen.x_0.             inv_chain_stimulus
                                                                 1.00 
      116 xclk_gen.xgen.x_0.x_0.          inv_stimulus       1.00 
      117 xclk_gen.xgen.x_0.x_1.          inv_stimulus       4.00 
      118 xclk_gen.xgen.x_0.x_2.          inv_stimulus      16.00 
      119 xclk_gen.xgen.x_0.x_3.          inv_stimulus      64.00 
      120 xa0_gen.xgen.x_0.x_0.           inv_stimulus       1.00 
      121 xa0_gen.xgen.x_0.x_1.           inv_stimulus       4.00 
      122 xa0_gen.xgen.x_0.x_2.           inv_stimulus      16.00 
      123 xa0_gen.xgen.x_0.x_3.           inv_stimulus      64.00 
      124 xa255_gen.xgen.x_0.x_0.         inv_stimulus       1.00 
      125 xa255_gen.xgen.x_0.x_1.         inv_stimulus       4.00 
      126 xa255_gen.xgen.x_0.x_2.         inv_stimulus      16.00 
      127 xa255_gen.xgen.x_0.x_3.         inv_stimulus      64.00 


 circuit parameter definitions
  parameter          =  value 

     0:supply                                                  =   1.0000       
     0:tcyc                                                    =   1.0000n      
     0:trf                                                     =  50.0000p      
     0:pd24s1pw                                                =   7.0000       
     0:pd24s1nw                                                =   5.0000       
     0:pd24s2pw                                                =  27.0000       
     0:pd24s2nw                                                =   9.0000       
     0:pd416s3pw                                               =  22.0000       
     0:pd416s3nw                                               =  11.0000       
     0:pd416s4pw                                               =  81.0000       
     0:pd416s4nw                                               =  28.0000       
     0:pd416s5pw                                               = 297.0000       
     0:pd416s5nw                                               =  99.0000       
     0:pd416s6pw                                               =   1.0810k      
     0:pd416s6nw                                               = 360.0000       
     0:dss7pw                                                  = 192.0000       
     0:dss7nw                                                  =  89.0000       
     0:dss8pw                                                  = 680.0000       
     0:dss8nw                                                  = 227.0000       
     0:bds9pw                                                  =  12.0000       
     0:bds9nw                                                  =   8.0000       
     0:bds10pw                                                 =  24.0000       
     0:bds10nw                                                 =   8.0000       
   109:nl                                                      =   2.0000       
   109:nw                                                      =   5.0000       
   109:nm                                                      =   1.0000       
   109:pl                                                      =   2.0000       
   109:pw                                                      =   7.0000       
   109:pm                                                      =   1.0000       
   116:wp                                                      =  24.0000       
   116:lp                                                      =   2.0000       
   116:wn                                                      =   8.0000       
   116:ln                                                      =   2.0000       
   117:wp                                                      =  24.0000       
   117:lp                                                      =   2.0000       
   117:wn                                                      =   8.0000       
   117:ln                                                      =   2.0000       
   118:wp                                                      =  24.0000       
   118:lp                                                      =   2.0000       
   118:wn                                                      =   8.0000       
   118:ln                                                      =   2.0000       
   119:wp                                                      =  24.0000       
   119:lp                                                      =   2.0000       
   119:wn                                                      =   8.0000       
   119:ln                                                      =   2.0000       
   120:wp                                                      =  24.0000       
   120:lp                                                      =   2.0000       
   120:wn                                                      =   8.0000       
   120:ln                                                      =   2.0000       
   121:wp                                                      =  24.0000       
   121:lp                                                      =   2.0000       
   121:wn                                                      =   8.0000       
   121:ln                                                      =   2.0000       
   122:wp                                                      =  24.0000       
   122:lp                                                      =   2.0000       
   122:wn                                                      =   8.0000       
   122:ln                                                      =   2.0000       
   123:wp                                                      =  24.0000       
   123:lp                                                      =   2.0000       
   123:wn                                                      =   8.0000       
   123:ln                                                      =   2.0000       
   124:wp                                                      =  24.0000       
   124:lp                                                      =   2.0000       
   124:wn                                                      =   8.0000       
   124:ln                                                      =   2.0000       
   125:wp                                                      =  24.0000       
   125:lp                                                      =   2.0000       
   125:wn                                                      =   8.0000       
   125:ln                                                      =   2.0000       
   126:wp                                                      =  24.0000       
   126:lp                                                      =   2.0000       
   126:wn                                                      =   8.0000       
   126:ln                                                      =   2.0000       
   127:wp                                                      =  24.0000       
   127:lp                                                      =   2.0000       
   127:wn                                                      =   8.0000       
   127:ln                                                      =   2.0000       




 constants  - tnom         kt           vt           gapsi        ni
            298.15000    4.1163e-21    25.69184m     1.11562    1.2565e+16 
  **info** (part2_blocked_wordline_4.hsp:60) DC voltage reset to initial transient source value              in source        0:vblock0             new dc=  0.0000D+00
  **warning** (/usr/class/ee313/ee313_spice_header.h:18) Both nodes of element vgnd are connected together; Line ignored.
 ** warning** associated with encrypted blocks were suppressed

1****** HSPICE -- F-2011.09-SP2 32-BIT (Feb 27 2012) linux ******               
 ******  
 part 2

  ******  circuit element summary tnom=  25.000 temp=  25.000 *****


 **** capacitors
  
  
                                                                    
 element name        3:c1           3:c0        4:c1        4:c0    
 node1               3:predec_25    3:predec    0:sapc_b    0:sae   
 node2               0:0            0:0         0:0         0:0     
 model                                                              
 cap eff            22.5300f       22.5300f   560.0000a   560.0000a 
 tc1                 0.             0.          0.          0.      
 tc2                 0.             0.          0.          0.      
 scale               1.0000         1.0000      1.0000      1.0000  
 ic                  0.             0.          0.          0.      
 m                   1.0000         1.0000      1.0000      1.0000  
 w                   0.             0.          0.          0.      
 l                   0.             0.          0.          0.      
 temp               25.0000        25.0000     25.0000     25.0000  
  
  
                                                                
 element name        5:c1        5:c0      25:c2      25:c1     
 node1               0:sapc_b    0:sae      0:bl63     0:bl_b63 
 node2               0:0         0:0        0:0        0:0      
 model                                                          
 cap eff           560.0000a   560.0000a   88.0000a   88.0000a  
 tc1                 0.          0.         0.         0.       
 tc2                 0.          0.         0.         0.       
 scale               1.0000      1.0000     1.0000     1.0000   
 ic                  0.          0.         0.         0.       
 m                   1.0000      1.0000     1.0000     1.0000   
 w                   0.          0.         0.         0.       
 l                   0.          0.         0.         0.       
 temp               25.0000     25.0000    25.0000    25.0000   
  
  
                                                               
 element name       25:c0      26:c2      26:c1       27:c2    
 node1               0:b3wl0    0:bl63     0:bl_b63    0:bl63  
 node2               0:0        0:0        0:0         0:0     
 model                                                         
 cap eff           140.0000a   22.3520f   22.3520f    88.0000a 
 tc1                 0.         0.         0.          0.      
 tc2                 0.         0.         0.          0.      
 scale               1.0000     1.0000     1.0000      1.0000  
 ic                  0.         0.         0.          0.      
 m                   1.0000   254.0000   254.0000      1.0000  
 w                   0.         0.         0.          0.      
 l                   0.         0.         0.          0.      
 temp               25.0000    25.0000    25.0000     25.0000  
  
  
                                                                     
 element name       27:c1       27:c0        28:c2        28:c1      
 node1               0:bl_b63    0:b3wl255    2:net0207    2:net0206 
 node2               0:0         0:0          0:0          0:0       
 model                                                               
 cap eff            88.0000a   140.0000a      5.5440f      5.5440f   
 tc1                 0.          0.           0.           0.        
 tc2                 0.          0.           0.           0.        
 scale               1.0000      1.0000       1.0000       1.0000    
 ic                  0.          0.           0.           0.        
 m                   1.0000      1.0000      63.0000      63.0000    
 w                   0.          0.           0.           0.        
 l                   0.          0.           0.           0.        
 temp               25.0000     25.0000      25.0000      25.0000    
  
  
                                                                    
 element name       28:c0      29:c2        29:c1        30:c2      
 node1               0:b3wl0    2:net0207    2:net0206    2:net0207 
 node2               0:0        0:0          0:0          0:0       
 model                                                              
 cap eff             8.8200f    1.4080p      1.4080p      5.5440f   
 tc1                 0.         0.           0.           0.        
 tc2                 0.         0.           0.           0.        
 scale               1.0000     1.0000       1.0000       1.0000    
 ic                  0.         0.           0.           0.        
 m                  63.0000    16.0000k     16.0000k     63.0000    
 w                   0.         0.           0.           0.        
 l                   0.         0.           0.           0.        
 temp               25.0000    25.0000      25.0000      25.0000    
  
  
                                                                      
 element name       30:c1        30:c0        31:c2        31:c1      
 node1               2:net0206    0:b3wl255    2:net0163    2:net0162 
 node2               0:0          0:0          0:0          0:0       
 model                                                                
 cap eff             5.5440f      8.8200f      5.6320f      5.6320f   
 tc1                 0.           0.           0.           0.        
 tc2                 0.           0.           0.           0.        
 scale               1.0000       1.0000       1.0000       1.0000    
 ic                  0.           0.           0.           0.        
 m                  63.0000      63.0000      64.0000      64.0000    
 w                   0.           0.           0.           0.        
 l                   0.           0.           0.           0.        
 temp               25.0000      25.0000      25.0000      25.0000    
  
  
                                                                    
 element name       31:c0        32:c2        32:c1        32:c0    
 node1               0:b2wl255    2:net0163    2:net0162    0:b2wl0 
 node2               0:0          0:0          0:0          0:0     
 model                                                              
 cap eff             8.9600f      5.6320f      5.6320f      8.9600f 
 tc1                 0.           0.           0.           0.      
 tc2                 0.           0.           0.           0.      
 scale               1.0000       1.0000       1.0000       1.0000  
 ic                  0.           0.           0.           0.      
 m                  64.0000      64.0000      64.0000      64.0000  
 w                   0.           0.           0.           0.      
 l                   0.           0.           0.           0.      
 temp               25.0000      25.0000      25.0000      25.0000  
  
  
                                                                      
 element name       33:c2        33:c1        34:c2        34:c1      
 node1               2:net0163    2:net0162    2:net0180    2:net0136 
 node2               0:0          0:0          0:0          0:0       
 model                                                                
 cap eff             1.4309p      1.4309p      5.6320f      5.6320f   
 tc1                 0.           0.           0.           0.        
 tc2                 0.           0.           0.           0.        
 scale               1.0000       1.0000       1.0000       1.0000    
 ic                  0.           0.           0.           0.        
 m                  16.2600k     16.2600k     64.0000      64.0000    
 w                   0.           0.           0.           0.        
 l                   0.           0.           0.           0.        
 temp               25.0000      25.0000      25.0000      25.0000    
  
  
                                                                    
 element name       34:c0      35:c2        35:c1        35:c0      
 node1               0:b1wl0    2:net0234    2:net0233    0:b0wl255 
 node2               0:0        0:0          0:0          0:0       
 model                                                              
 cap eff             8.9600f    5.5440f      5.5440f      8.8200f   
 tc1                 0.         0.           0.           0.        
 tc2                 0.         0.           0.           0.        
 scale               1.0000     1.0000       1.0000       1.0000    
 ic                  0.         0.           0.           0.        
 m                  64.0000    63.0000      63.0000      63.0000    
 w                   0.         0.           0.           0.        
 l                   0.         0.           0.           0.        
 temp               25.0000    25.0000      25.0000      25.0000    
  
  
                                                                
 element name       36:c2      36:c1      36:c0        37:c2    
 node1               0:bl0      0:bl_b0    0:b0wl255    0:bl0   
 node2               0:0        0:0        0:0          0:0     
 model                                                          
 cap eff            88.0000a   88.0000a  140.0000a     22.3520f 
 tc1                 0.         0.         0.           0.      
 tc2                 0.         0.         0.           0.      
 scale               1.0000     1.0000     1.0000       1.0000  
 ic                  0.         0.         0.           0.      
 m                   1.0000     1.0000     1.0000     254.0000  
 w                   0.         0.         0.           0.      
 l                   0.         0.         0.           0.      
 temp               25.0000    25.0000    25.0000      25.0000  
  
  
                                                                    
 element name       37:c1      38:c2        38:c1        39:c2      
 node1               0:bl_b0    2:net0234    2:net0233    2:net0180 
 node2               0:0        0:0          0:0          0:0       
 model                                                              
 cap eff            22.3520f    1.4080p      1.4080p      1.4309p   
 tc1                 0.         0.           0.           0.        
 tc2                 0.         0.           0.           0.        
 scale               1.0000     1.0000       1.0000       1.0000    
 ic                  0.         0.           0.           0.        
 m                 254.0000    16.0000k     16.0000k     16.2600k   
 w                   0.         0.           0.           0.        
 l                   0.         0.           0.           0.        
 temp               25.0000    25.0000      25.0000      25.0000    
  
  
                                                                      
 element name       39:c1        40:c2        40:c1        40:c0      
 node1               2:net0136    2:net0180    2:net0136    0:b1wl255 
 node2               0:0          0:0          0:0          0:0       
 model                                                                
 cap eff             1.4309p      5.6320f      5.6320f      8.9600f   
 tc1                 0.           0.           0.           0.        
 tc2                 0.           0.           0.           0.        
 scale               1.0000       1.0000       1.0000       1.0000    
 ic                  0.           0.           0.           0.        
 m                  16.2600k     64.0000      64.0000      64.0000    
 w                   0.           0.           0.           0.        
 l                   0.           0.           0.           0.        
 temp               25.0000      25.0000      25.0000      25.0000    
  
  
                                                                  
 element name       41:c2        41:c1        41:c0      42:c2    
 node1               2:net0234    2:net0233    0:b0wl0    0:bl0   
 node2               0:0          0:0          0:0        0:0     
 model                                                            
 cap eff             5.5440f      5.5440f      8.8200f   88.0000a 
 tc1                 0.           0.           0.         0.      
 tc2                 0.           0.           0.         0.      
 scale               1.0000       1.0000       1.0000     1.0000  
 ic                  0.           0.           0.         0.      
 m                  63.0000      63.0000      63.0000     1.0000  
 w                   0.           0.           0.         0.      
 l                   0.           0.           0.         0.      
 temp               25.0000      25.0000      25.0000    25.0000  
  
  
                                        
 element name       42:c1      42:c0    
 node1               0:bl_b0    0:b0wl0 
 node2               0:0        0:0     
 model                                  
 cap eff            88.0000a  140.0000a 
 tc1                 0.         0.      
 tc2                 0.         0.      
 scale               1.0000     1.0000  
 ic                  0.         0.      
 m                   1.0000     1.0000  
 w                   0.         0.      
 l                   0.         0.      
 temp               25.0000    25.0000  


 **** voltage-controlled voltage sources
      name        +             -          dimension  function  scale
       60:e_0            60:net_3           0:0              1      poly       1.    
       61:e_0            61:net_3           0:0              1      poly       1.    
       62:e_0            62:net_3           0:0              1      poly       1.    


 **** current-controlled current sources
      name        +             -          dimension  function  multiplier
       60:f_0            60:net_4           0:0              1      poly       1.    
       60:f_1            60:net_4           0:0              1      poly       1.    
       61:f_0            61:net_4           0:0              1      poly       1.    
       61:f_1            61:net_4           0:0              1      poly       1.    
       62:f_0            62:net_4           0:0              1      poly       1.    
       62:f_1            62:net_4           0:0              1      poly       1.    


 **** independent sources

     name         node1        node2      dc volt    ac mag    ac phase    type
  v_supply  vdd               0                    1.0000     0.         0.      dc   
  v_supply1  vdd!              0                    1.0000     0.         0.      dc   
  vblock0  block0            0                    0.         0.         0.      pulse
             initial value     0.     
             pulsed value.     1.0000 
             delay time...   500.0000p
             risetime.....    50.0000p
             falltime.....    50.0000p
             width........     2.0000n
             period.......     4.0000n

  vblock3  block3            0                    1.0000     0.         0.      pulse
             initial value     1.0000 
             pulsed value.     0.     
             delay time...   500.0000p
             risetime.....    50.0000p
             falltime.....    50.0000p
             width........     2.0000n
             period.......     4.0000n

  vblpc_b  blpc_b            0                    1.0000     0.         0.      pulse
             initial value     1.0000 
             pulsed value.     0.     
             delay time...   250.0000p
             risetime.....    50.0000p
             falltime.....    50.0000p
             width........   450.0000p
             period.......     1.0000n

  vsae  sae               0                    0.         0.         0.      pulse
             initial value     0.     
             pulsed value.     1.0000 
             delay time...     1.2500n
             risetime.....    50.0000p
             falltime.....    50.0000p
             width........   450.0000p
             period.......     1.0000n

  vsapc_b  sapc_b            0                    1.0000     0.         0.      pulse
             initial value     1.0000 
             pulsed value.     0.     
             delay time...   300.0000p
             risetime.....    50.0000p
             falltime.....    50.0000p
             width........   450.0000p
             period.......     1.0000n

  vsel_b0  sel_b0            0                    1.0000     0.         0.      pulse
             initial value     1.0000 
             pulsed value.     0.     
             delay time...   800.0000p
             risetime.....    50.0000p
             falltime.....    50.0000p
             width........   450.0000p
             period.......     1.0000n

  vsel_b63  sel_b63           0                    1.0000     0.         0.      pulse
             initial value     1.0000 
             pulsed value.     0.     
             delay time...   800.0000p
             risetime.....    50.0000p
             falltime.....    50.0000p
             width........   450.0000p
             period.......     1.0000n

  vwrdata0  wrdata0           0                    0.         0.         0.      dc   
  vwrdata255  wrdata255         0                    0.         0.         0.      dc   
  vwren  wren              0                    0.         0.         0.      dc   
 xclk_gen.vsrc xclk_gen.src               0                    0.         0.         0.      pulse
             initial value     0.     
             pulsed value.     1.0000 
             delay time...   500.0000p
             risetime.....    50.0000p
             falltime.....    50.0000p
             width........   450.0000p
             period.......     1.0000n

 xa0_gen.vsrc xa0_gen.src               0                    0.         0.         0.      pulse
             initial value     0.     
             pulsed value.     1.0000 
             delay time...   375.0000p
             risetime.....    50.0000p
             falltime.....    50.0000p
             width........   950.0000p
             period.......     2.0000n

 xa255_gen.vsrc xa255_gen.src               0                    0.         0.         0.      pulse
             initial value     0.     
             pulsed value.     1.0000 
             delay time...     1.3750n
             risetime.....    50.0000p
             falltime.....    50.0000p
             width........   950.0000p
             period.......     2.0000n

 xclk_gen.xgen.v_monitor xclk_gen.xgen.net_4             0                    1.0000     0.         0.      dc   
 xclk_gen.xgen.v_sense xclk_gen.xgen.net_3             ck                   0.         0.         0.      dc   
 xa0_gen.xgen.v_monitor xa0_gen.xgen.net_4             0                    1.0000     0.         0.      dc   
 xa0_gen.xgen.v_sense xa0_gen.xgen.net_3             a0                   0.         0.         0.      dc   
 xa255_gen.xgen.v_monitor xa255_gen.xgen.net_4             0                    1.0000     0.         0.      dc   
 xa255_gen.xgen.v_sense xa255_gen.xgen.net_3             a255                 0.         0.         0.      dc   
 xclk_gen.xgen.x_0.x_0.vstimulus_supply xclk_gen.xgen.x_0.x_0.vdd_stimulus      0                    1.0000     0.         0.      dc   
 xclk_gen.xgen.x_0.x_1.vstimulus_supply xclk_gen.xgen.x_0.x_1.vdd_stimulus      0                    1.0000     0.         0.      dc   
 xclk_gen.xgen.x_0.x_2.vstimulus_supply xclk_gen.xgen.x_0.x_2.vdd_stimulus      0                    1.0000     0.         0.      dc   
 xclk_gen.xgen.x_0.x_3.vstimulus_supply xclk_gen.xgen.x_0.x_3.vdd_stimulus      0                    1.0000     0.         0.      dc   
 xa0_gen.xgen.x_0.x_0.vstimulus_supply xa0_gen.xgen.x_0.x_0.vdd_stimulus      0                    1.0000     0.         0.      dc   
 xa0_gen.xgen.x_0.x_1.vstimulus_supply xa0_gen.xgen.x_0.x_1.vdd_stimulus      0                    1.0000     0.         0.      dc   
 xa0_gen.xgen.x_0.x_2.vstimulus_supply xa0_gen.xgen.x_0.x_2.vdd_stimulus      0                    1.0000     0.         0.      dc   
 xa0_gen.xgen.x_0.x_3.vstimulus_supply xa0_gen.xgen.x_0.x_3.vdd_stimulus      0                    1.0000     0.         0.      dc   
 xa255_gen.xgen.x_0.x_0.vstimulus_supply xa255_gen.xgen.x_0.x_0.vdd_stimulus      0                    1.0000     0.         0.      dc   
 xa255_gen.xgen.x_0.x_1.vstimulus_supply xa255_gen.xgen.x_0.x_1.vdd_stimulus      0                    1.0000     0.         0.      dc   
 xa255_gen.xgen.x_0.x_2.vstimulus_supply xa255_gen.xgen.x_0.x_2.vdd_stimulus      0                    1.0000     0.         0.      dc   
 xa255_gen.xgen.x_0.x_3.vstimulus_supply xa255_gen.xgen.x_0.x_3.vdd_stimulus      0                    1.0000     0.         0.      dc   


 **** mosfets


 **** BSIM4 Model (Level 54)
  
  
                                                                
 element name        4:m4       4:m3       4:meq       4:mpc2   
 drain               4:sbl_b    0:vdd!     4:sbl       0:vdd!   
 gate                4:sbl      4:sbl_b    0:sapc_b    0:sapc_b 
 source              0:vdd!     4:sbl      4:sbl_b     4:sbl_b  
 bulk                0:vdd!     0:vdd!     0:vdd!      0:vdd!   
 model               0:pmos     0:pmos     0:pmos      0:pmos   
 w eff              78.0000n   78.0000n  166.0000n   166.0000n  
 l eff              29.0000n   29.0000n   29.0000n    29.0000n  
 rd eff              0.         0.         0.          0.       
 rs eff              0.         0.         0.          0.       
 cdsat               7.8700a    7.8700a   15.1073a    15.1073a  
 cssat               7.8700a    7.8700a   15.1073a    15.1073a  
 capbd             133.6681a  133.6681a  223.4243a   223.4243a  
 capbs             116.1033a  116.1033a  188.2947a   188.2947a  
 temp               25.0000    25.0000    25.0000     25.0000   
 aic                                                            
 nf                  1.0000     1.0000     1.0000      1.0000   
 min                 0.         0.         0.          0.       
 rbdb               15.0000    15.0000    15.0000     15.0000   
 rbsb               15.0000    15.0000    15.0000     15.0000   
 rbpb                5.0000     5.0000     5.0000      5.0000   
 rbps               15.0000    15.0000    15.0000     15.0000   
 rbpd               15.0000    15.0000    15.0000     15.0000   
 trnqsmod            0.         0.         0.          0.       
 acnqsmod            0.         0.         0.          0.       
 rbodymod            1.0000     1.0000     1.0000      1.0000   
 rgatemod            1.0000     1.0000     1.0000      1.0000   
 geomod              0.         0.         0.          0.       
 rgeomod             0.         0.         0.          0.       
 delvto              0.         0.         0.          0.       
 mulu0               1.0000     1.0000     1.0000      1.0000   
 delk1               0.         0.         0.          0.       
 delnfct             0.         0.         0.          0.       
 deltox              0.         0.         0.          0.       
 sa                  0.         0.         0.          0.       
 sb                  0.         0.         0.          0.       
 sd                  0.         0.         0.          0.       
 saeff               0.         0.         0.          0.       
 sbeff               0.         0.         0.          0.       
  
  
                                                                 
 element name        4:mpc       4:miso_b    4:miso     4:mmx4_b 
 drain               4:sbl       4:sbl_b     4:sbl      4:cmbl_b 
 gate                0:sapc_b    0:sae       0:sae      0:vdd!   
 source              0:vdd!      4:cmbl_b    4:cmbl     0:vdd!   
 bulk                0:vdd!      0:vdd!      0:vdd!     0:vdd!   
 model               0:pmos      0:pmos      0:pmos     0:pmos   
 w eff             166.0000n   254.0000n   254.0000n  518.0000n  
 l eff              29.0000n    29.0000n    29.0000n   29.0000n  
 rd eff              0.          0.          0.         0.       
 rs eff              0.          0.          0.         0.       
 cdsat              15.1073a    22.3447a    22.3447a   44.0567a  
 cssat              15.1073a    22.3447a    22.3447a   44.0567a  
 capbd             223.4243a   313.1804a   313.1804a  582.4488a  
 capbs             188.2947a   260.4860a   260.4860a  477.0600a  
 temp               25.0000     25.0000     25.0000    25.0000   
 aic                                                             
 nf                  1.0000      1.0000      1.0000     1.0000   
 min                 0.          0.          0.         0.       
 rbdb               15.0000     15.0000     15.0000    15.0000   
 rbsb               15.0000     15.0000     15.0000    15.0000   
 rbpb                5.0000      5.0000      5.0000     5.0000   
 rbps               15.0000     15.0000     15.0000    15.0000   
 rbpd               15.0000     15.0000     15.0000    15.0000   
 trnqsmod            0.          0.          0.         0.       
 acnqsmod            0.          0.          0.         0.       
 rbodymod            1.0000      1.0000      1.0000     1.0000   
 rgatemod            1.0000      1.0000      1.0000     1.0000   
 geomod              0.          0.          0.         0.       
 rgeomod             0.          0.          0.         0.       
 delvto              0.          0.          0.         0.       
 mulu0               1.0000      1.0000      1.0000     1.0000   
 delk1               0.          0.          0.         0.       
 delnfct             0.          0.          0.         0.       
 deltox              0.          0.          0.         0.       
 sa                  0.          0.          0.         0.       
 sb                  0.          0.          0.         0.       
 sd                  0.          0.          0.         0.       
 saeff               0.          0.          0.         0.       
 sbeff               0.          0.          0.         0.       
  
  
                                                                
 element name        4:mmx4     4:mmx3_b    4:mmx3     4:mmx2_b 
 drain               4:cmbl     4:cmbl_b    4:cmbl     4:cmbl_b 
 gate                0:vdd!     0:vdd!      0:vdd!     0:vdd!   
 source              0:vdd!     0:vdd!      0:vdd!     0:vdd!   
 bulk                0:vdd!     0:vdd!      0:vdd!     0:vdd!   
 model               0:pmos     0:pmos      0:pmos     0:pmos   
 w eff             518.0000n  518.0000n   518.0000n  518.0000n  
 l eff              29.0000n   29.0000n    29.0000n   29.0000n  
 rd eff              0.         0.          0.         0.       
 rs eff              0.         0.          0.         0.       
 cdsat              44.0567a   44.0567a    44.0567a   44.0567a  
 cssat              44.0567a   44.0567a    44.0567a   44.0567a  
 capbd             582.4488a  582.4488a   582.4488a  582.4488a  
 capbs             477.0600a  477.0600a   477.0600a  477.0600a  
 temp               25.0000    25.0000     25.0000    25.0000   
 aic                                                            
 nf                  1.0000     1.0000      1.0000     1.0000   
 min                 0.         0.          0.         0.       
 rbdb               15.0000    15.0000     15.0000    15.0000   
 rbsb               15.0000    15.0000     15.0000    15.0000   
 rbpb                5.0000     5.0000      5.0000     5.0000   
 rbps               15.0000    15.0000     15.0000    15.0000   
 rbpd               15.0000    15.0000     15.0000    15.0000   
 trnqsmod            0.         0.          0.         0.       
 acnqsmod            0.         0.          0.         0.       
 rbodymod            1.0000     1.0000      1.0000     1.0000   
 rgatemod            1.0000     1.0000      1.0000     1.0000   
 geomod              0.         0.          0.         0.       
 rgeomod             0.         0.          0.         0.       
 delvto              0.         0.          0.         0.       
 mulu0               1.0000     1.0000      1.0000     1.0000   
 delk1               0.         0.          0.         0.       
 delnfct             0.         0.          0.         0.       
 deltox              0.         0.          0.         0.       
 sa                  0.         0.          0.         0.       
 sb                  0.         0.          0.         0.       
 sd                  0.         0.          0.         0.       
 saeff               0.         0.          0.         0.       
 sbeff               0.         0.          0.         0.       
  
  
                                                                  
 element name        4:mmx2     4:mmx_b      4:mmx        4:mtail 
 drain               4:cmbl     4:cmbl_b     4:cmbl       4:tail  
 gate                0:vdd!     0:sel_b63    0:sel_b63    0:sae   
 source              0:vdd!     0:bl_b63     0:bl63       0:0     
 bulk                0:vdd!     0:vdd!       0:vdd!       0:0     
 model               0:pmos     0:pmos       0:pmos       0:nmos  
 w eff             518.0000n  518.0000n    518.0000n    166.0000n 
 l eff              29.0000n   29.0000n     29.0000n     29.0000n 
 rd eff              0.         0.           0.           0.      
 rs eff              0.         0.           0.           0.      
 cdsat              44.0567a   44.0567a     44.0567a     15.1073a 
 cssat              44.0567a   44.0567a     44.0567a     15.1073a 
 capbd             582.4488a  582.4488a    582.4488a    223.4243a 
 capbs             477.0600a  477.0600a    477.0600a    188.2947a 
 temp               25.0000    25.0000      25.0000      25.0000  
 aic                                                              
 nf                  1.0000     1.0000       1.0000       1.0000  
 min                 0.         0.           0.           0.      
 rbdb               15.0000    15.0000      15.0000      15.0000  
 rbsb               15.0000    15.0000      15.0000      15.0000  
 rbpb                5.0000     5.0000       5.0000       5.0000  
 rbps               15.0000    15.0000      15.0000      15.0000  
 rbpd               15.0000    15.0000      15.0000      15.0000  
 trnqsmod            0.         0.           0.           0.      
 acnqsmod            0.         0.           0.           0.      
 rbodymod            1.0000     1.0000       1.0000       1.0000  
 rgatemod            1.0000     1.0000       1.0000       1.0000  
 geomod              0.         0.           0.           0.      
 rgeomod             0.         0.           0.           0.      
 delvto              0.         0.           0.           0.      
 mulu0               1.0000     1.0000       1.0000       1.0000  
 delk1               0.         0.           0.           0.      
 delnfct             0.         0.           0.           0.      
 deltox              0.         0.           0.           0.      
 sa                  0.         0.           0.           0.      
 sb                  0.         0.           0.           0.      
 sd                  0.         0.           0.           0.      
 saeff               0.         0.           0.           0.      
 sbeff               0.         0.           0.           0.      
  
  
                                                              
 element name        4:m1       4:m2       5:m4       5:m3    
 drain               4:tail     4:sbl_b    5:sbl_b    0:vdd!  
 gate                4:sbl_b    4:sbl      5:sbl      5:sbl_b 
 source              4:sbl      4:tail     0:vdd!     5:sbl   
 bulk                0:0        0:0        0:vdd!     0:vdd!  
 model               0:nmos     0:nmos     0:pmos     0:pmos  
 w eff             122.0000n  122.0000n   78.0000n   78.0000n 
 l eff              29.0000n   29.0000n   29.0000n   29.0000n 
 rd eff              0.         0.         0.         0.      
 rs eff              0.         0.         0.         0.      
 cdsat              11.4887a   11.4887a    7.8700a    7.8700a 
 cssat              11.4887a   11.4887a    7.8700a    7.8700a 
 capbd             178.5462a  178.5462a  133.6681a  133.6681a 
 capbs             152.1990a  152.1990a  116.1033a  116.1033a 
 temp               25.0000    25.0000    25.0000    25.0000  
 aic                                                          
 nf                  1.0000     1.0000     1.0000     1.0000  
 min                 0.         0.         0.         0.      
 rbdb               15.0000    15.0000    15.0000    15.0000  
 rbsb               15.0000    15.0000    15.0000    15.0000  
 rbpb                5.0000     5.0000     5.0000     5.0000  
 rbps               15.0000    15.0000    15.0000    15.0000  
 rbpd               15.0000    15.0000    15.0000    15.0000  
 trnqsmod            0.         0.         0.         0.      
 acnqsmod            0.         0.         0.         0.      
 rbodymod            1.0000     1.0000     1.0000     1.0000  
 rgatemod            1.0000     1.0000     1.0000     1.0000  
 geomod              0.         0.         0.         0.      
 rgeomod             0.         0.         0.         0.      
 delvto              0.         0.         0.         0.      
 mulu0               1.0000     1.0000     1.0000     1.0000  
 delk1               0.         0.         0.         0.      
 delnfct             0.         0.         0.         0.      
 deltox              0.         0.         0.         0.      
 sa                  0.         0.         0.         0.      
 sb                  0.         0.         0.         0.      
 sd                  0.         0.         0.         0.      
 saeff               0.         0.         0.         0.      
 sbeff               0.         0.         0.         0.      
  
  
                                                                  
 element name        5:meq       5:mpc2      5:mpc       5:miso_b 
 drain               5:sbl       0:vdd!      5:sbl       5:sbl_b  
 gate                0:sapc_b    0:sapc_b    0:sapc_b    0:sae    
 source              5:sbl_b     5:sbl_b     0:vdd!      5:cmbl_b 
 bulk                0:vdd!      0:vdd!      0:vdd!      0:vdd!   
 model               0:pmos      0:pmos      0:pmos      0:pmos   
 w eff             166.0000n   166.0000n   166.0000n   254.0000n  
 l eff              29.0000n    29.0000n    29.0000n    29.0000n  
 rd eff              0.          0.          0.          0.       
 rs eff              0.          0.          0.          0.       
 cdsat              15.1073a    15.1073a    15.1073a    22.3447a  
 cssat              15.1073a    15.1073a    15.1073a    22.3447a  
 capbd             223.4243a   223.4243a   223.4243a   313.1804a  
 capbs             188.2947a   188.2947a   188.2947a   260.4860a  
 temp               25.0000     25.0000     25.0000     25.0000   
 aic                                                              
 nf                  1.0000      1.0000      1.0000      1.0000   
 min                 0.          0.          0.          0.       
 rbdb               15.0000     15.0000     15.0000     15.0000   
 rbsb               15.0000     15.0000     15.0000     15.0000   
 rbpb                5.0000      5.0000      5.0000      5.0000   
 rbps               15.0000     15.0000     15.0000     15.0000   
 rbpd               15.0000     15.0000     15.0000     15.0000   
 trnqsmod            0.          0.          0.          0.       
 acnqsmod            0.          0.          0.          0.       
 rbodymod            1.0000      1.0000      1.0000      1.0000   
 rgatemod            1.0000      1.0000      1.0000      1.0000   
 geomod              0.          0.          0.          0.       
 rgeomod             0.          0.          0.          0.       
 delvto              0.          0.          0.          0.       
 mulu0               1.0000      1.0000      1.0000      1.0000   
 delk1               0.          0.          0.          0.       
 delnfct             0.          0.          0.          0.       
 deltox              0.          0.          0.          0.       
 sa                  0.          0.          0.          0.       
 sb                  0.          0.          0.          0.       
 sd                  0.          0.          0.          0.       
 saeff               0.          0.          0.          0.       
 sbeff               0.          0.          0.          0.       
  
  
                                                                
 element name        5:miso     5:mmx4_b    5:mmx4     5:mmx3_b 
 drain               5:sbl      5:cmbl_b    5:cmbl     5:cmbl_b 
 gate                0:sae      0:vdd!      0:vdd!     0:vdd!   
 source              5:cmbl     0:vdd!      0:vdd!     0:vdd!   
 bulk                0:vdd!     0:vdd!      0:vdd!     0:vdd!   
 model               0:pmos     0:pmos      0:pmos     0:pmos   
 w eff             254.0000n  518.0000n   518.0000n  518.0000n  
 l eff              29.0000n   29.0000n    29.0000n   29.0000n  
 rd eff              0.         0.          0.         0.       
 rs eff              0.         0.          0.         0.       
 cdsat              22.3447a   44.0567a    44.0567a   44.0567a  
 cssat              22.3447a   44.0567a    44.0567a   44.0567a  
 capbd             313.1804a  582.4488a   582.4488a  582.4488a  
 capbs             260.4860a  477.0600a   477.0600a  477.0600a  
 temp               25.0000    25.0000     25.0000    25.0000   
 aic                                                            
 nf                  1.0000     1.0000      1.0000     1.0000   
 min                 0.         0.          0.         0.       
 rbdb               15.0000    15.0000     15.0000    15.0000   
 rbsb               15.0000    15.0000     15.0000    15.0000   
 rbpb                5.0000     5.0000      5.0000     5.0000   
 rbps               15.0000    15.0000     15.0000    15.0000   
 rbpd               15.0000    15.0000     15.0000    15.0000   
 trnqsmod            0.         0.          0.         0.       
 acnqsmod            0.         0.          0.         0.       
 rbodymod            1.0000     1.0000      1.0000     1.0000   
 rgatemod            1.0000     1.0000      1.0000     1.0000   
 geomod              0.         0.          0.         0.       
 rgeomod             0.         0.          0.         0.       
 delvto              0.         0.          0.         0.       
 mulu0               1.0000     1.0000      1.0000     1.0000   
 delk1               0.         0.          0.         0.       
 delnfct             0.         0.          0.         0.       
 deltox              0.         0.          0.         0.       
 sa                  0.         0.          0.         0.       
 sb                  0.         0.          0.         0.       
 sd                  0.         0.          0.         0.       
 saeff               0.         0.          0.         0.       
 sbeff               0.         0.          0.         0.       
  
  
                                                                
 element name        5:mmx3     5:mmx2_b    5:mmx2     5:mmx_b  
 drain               5:cmbl     5:cmbl_b    5:cmbl     5:cmbl_b 
 gate                0:vdd!     0:vdd!      0:vdd!     0:sel_b0 
 source              0:vdd!     0:vdd!      0:vdd!     0:bl_b0  
 bulk                0:vdd!     0:vdd!      0:vdd!     0:vdd!   
 model               0:pmos     0:pmos      0:pmos     0:pmos   
 w eff             518.0000n  518.0000n   518.0000n  518.0000n  
 l eff              29.0000n   29.0000n    29.0000n   29.0000n  
 rd eff              0.         0.          0.         0.       
 rs eff              0.         0.          0.         0.       
 cdsat              44.0567a   44.0567a    44.0567a   44.0567a  
 cssat              44.0567a   44.0567a    44.0567a   44.0567a  
 capbd             582.4488a  582.4488a   582.4488a  582.4488a  
 capbs             477.0600a  477.0600a   477.0600a  477.0600a  
 temp               25.0000    25.0000     25.0000    25.0000   
 aic                                                            
 nf                  1.0000     1.0000      1.0000     1.0000   
 min                 0.         0.          0.         0.       
 rbdb               15.0000    15.0000     15.0000    15.0000   
 rbsb               15.0000    15.0000     15.0000    15.0000   
 rbpb                5.0000     5.0000      5.0000     5.0000   
 rbps               15.0000    15.0000     15.0000    15.0000   
 rbpd               15.0000    15.0000     15.0000    15.0000   
 trnqsmod            0.         0.          0.         0.       
 acnqsmod            0.         0.          0.         0.       
 rbodymod            1.0000     1.0000      1.0000     1.0000   
 rgatemod            1.0000     1.0000      1.0000     1.0000   
 geomod              0.         0.          0.         0.       
 rgeomod             0.         0.          0.         0.       
 delvto              0.         0.          0.         0.       
 mulu0               1.0000     1.0000      1.0000     1.0000   
 delk1               0.         0.          0.         0.       
 delnfct             0.         0.          0.         0.       
 deltox              0.         0.          0.         0.       
 sa                  0.         0.          0.         0.       
 sb                  0.         0.          0.         0.       
 sd                  0.         0.          0.         0.       
 saeff               0.         0.          0.         0.       
 sbeff               0.         0.          0.         0.       
  
  
                                                               
 element name        5:mmx       5:mtail    5:m1       5:m2    
 drain               5:cmbl      5:tail     5:tail     5:sbl_b 
 gate                0:sel_b0    0:sae      5:sbl_b    5:sbl   
 source              0:bl0       0:0        5:sbl      5:tail  
 bulk                0:vdd!      0:0        0:0        0:0     
 model               0:pmos      0:nmos     0:nmos     0:nmos  
 w eff             518.0000n   166.0000n  122.0000n  122.0000n 
 l eff              29.0000n    29.0000n   29.0000n   29.0000n 
 rd eff              0.          0.         0.         0.      
 rs eff              0.          0.         0.         0.      
 cdsat              44.0567a    15.1073a   11.4887a   11.4887a 
 cssat              44.0567a    15.1073a   11.4887a   11.4887a 
 capbd             582.4488a   223.4243a  178.5462a  178.5462a 
 capbs             477.0600a   188.2947a  152.1990a  152.1990a 
 temp               25.0000     25.0000    25.0000    25.0000  
 aic                                                           
 nf                  1.0000      1.0000     1.0000     1.0000  
 min                 0.          0.         0.         0.      
 rbdb               15.0000     15.0000    15.0000    15.0000  
 rbsb               15.0000     15.0000    15.0000    15.0000  
 rbpb                5.0000      5.0000     5.0000     5.0000  
 rbps               15.0000     15.0000    15.0000    15.0000  
 rbpd               15.0000     15.0000    15.0000    15.0000  
 trnqsmod            0.          0.         0.         0.      
 acnqsmod            0.          0.         0.         0.      
 rbodymod            1.0000      1.0000     1.0000     1.0000  
 rgatemod            1.0000      1.0000     1.0000     1.0000  
 geomod              0.          0.         0.         0.      
 rgeomod             0.          0.         0.         0.      
 delvto              0.          0.         0.         0.      
 mulu0               1.0000      1.0000     1.0000     1.0000  
 delk1               0.          0.         0.         0.      
 delnfct             0.          0.         0.         0.      
 deltox              0.          0.         0.         0.      
 sa                  0.          0.         0.         0.      
 sb                  0.          0.         0.         0.      
 sd                  0.          0.         0.         0.      
 saeff               0.          0.         0.         0.      
 sbeff               0.          0.         0.         0.      
  
  
                                                                      
 element name        9:m1         9:m2        10:m1        10:m2      
 drain               0:b2wl255    0:b2wl255    0:b1wl255    0:b1wl255 
 gate                1:net053     1:net053     1:net055     1:net055  
 source              0:vdd!       0:0          0:vdd!       0:0       
 bulk                0:vdd!       0:0          0:vdd!       0:0       
 model               0:pmos       0:nmos       0:pmos       0:nmos    
 w eff             518.0000n    166.0000n    518.0000n    166.0000n   
 l eff              29.0000n     29.0000n     29.0000n     29.0000n   
 rd eff              0.           0.           0.           0.        
 rs eff              0.           0.           0.           0.        
 cdsat              44.0567a     15.1073a     44.0567a     15.1073a   
 cssat              44.0567a     15.1073a     44.0567a     15.1073a   
 capbd             582.4488a    223.4243a    582.4488a    223.4243a   
 capbs             477.0600a    188.2947a    477.0600a    188.2947a   
 temp               25.0000      25.0000      25.0000      25.0000    
 aic                                                                  
 nf                  1.0000       1.0000       1.0000       1.0000    
 min                 0.           0.           0.           0.        
 rbdb               15.0000      15.0000      15.0000      15.0000    
 rbsb               15.0000      15.0000      15.0000      15.0000    
 rbpb                5.0000       5.0000       5.0000       5.0000    
 rbps               15.0000      15.0000      15.0000      15.0000    
 rbpd               15.0000      15.0000      15.0000      15.0000    
 trnqsmod            0.           0.           0.           0.        
 acnqsmod            0.           0.           0.           0.        
 rbodymod            1.0000       1.0000       1.0000       1.0000    
 rgatemod            1.0000       1.0000       1.0000       1.0000    
 geomod              0.           0.           0.           0.        
 rgeomod             0.           0.           0.           0.        
 delvto              0.           0.           0.           0.        
 mulu0               1.0000       1.0000       1.0000       1.0000    
 delk1               0.           0.           0.           0.        
 delnfct             0.           0.           0.           0.        
 deltox              0.           0.           0.           0.        
 sa                  0.           0.           0.           0.        
 sb                  0.           0.           0.           0.        
 sd                  0.           0.           0.           0.        
 saeff               0.           0.           0.           0.        
 sbeff               0.           0.           0.           0.        
  
  
                                                                      
 element name       11:m1        11:m2        12:m1        12:m2      
 drain               0:b3wl255    0:b3wl255    0:b0wl255    0:b0wl255 
 gate                1:net057     1:net057     1:net059     1:net059  
 source              0:vdd!       0:0          0:vdd!       0:0       
 bulk                0:vdd!       0:0          0:vdd!       0:0       
 model               0:pmos       0:nmos       0:pmos       0:nmos    
 w eff             518.0000n    166.0000n    518.0000n    166.0000n   
 l eff              29.0000n     29.0000n     29.0000n     29.0000n   
 rd eff              0.           0.           0.           0.        
 rs eff              0.           0.           0.           0.        
 cdsat              44.0567a     15.1073a     44.0567a     15.1073a   
 cssat              44.0567a     15.1073a     44.0567a     15.1073a   
 capbd             582.4488a    223.4243a    582.4488a    223.4243a   
 capbs             477.0600a    188.2947a    477.0600a    188.2947a   
 temp               25.0000      25.0000      25.0000      25.0000    
 aic                                                                  
 nf                  1.0000       1.0000       1.0000       1.0000    
 min                 0.           0.           0.           0.        
 rbdb               15.0000      15.0000      15.0000      15.0000    
 rbsb               15.0000      15.0000      15.0000      15.0000    
 rbpb                5.0000       5.0000       5.0000       5.0000    
 rbps               15.0000      15.0000      15.0000      15.0000    
 rbpd               15.0000      15.0000      15.0000      15.0000    
 trnqsmod            0.           0.           0.           0.        
 acnqsmod            0.           0.           0.           0.        
 rbodymod            1.0000       1.0000       1.0000       1.0000    
 rgatemod            1.0000       1.0000       1.0000       1.0000    
 geomod              0.           0.           0.           0.        
 rgeomod             0.           0.           0.           0.        
 delvto              0.           0.           0.           0.        
 mulu0               1.0000       1.0000       1.0000       1.0000    
 delk1               0.           0.           0.           0.        
 delnfct             0.           0.           0.           0.        
 deltox              0.           0.           0.           0.        
 sa                  0.           0.           0.           0.        
 sb                  0.           0.           0.           0.        
 sd                  0.           0.           0.           0.        
 saeff               0.           0.           0.           0.        
 sbeff               0.           0.           0.           0.        
  
  
                                                                  
 element name       13:m1       13:m2       14:m1       14:m2     
 drain               0:b3wl0     0:b3wl0     0:b2wl0     0:b2wl0  
 gate                1:net023    1:net023    1:net026    1:net026 
 source              0:vdd!      0:0         0:vdd!      0:0      
 bulk                0:vdd!      0:0         0:vdd!      0:0      
 model               0:pmos      0:nmos      0:pmos      0:nmos   
 w eff             518.0000n   166.0000n   518.0000n   166.0000n  
 l eff              29.0000n    29.0000n    29.0000n    29.0000n  
 rd eff              0.          0.          0.          0.       
 rs eff              0.          0.          0.          0.       
 cdsat              44.0567a    15.1073a    44.0567a    15.1073a  
 cssat              44.0567a    15.1073a    44.0567a    15.1073a  
 capbd             582.4488a   223.4243a   582.4488a   223.4243a  
 capbs             477.0600a   188.2947a   477.0600a   188.2947a  
 temp               25.0000     25.0000     25.0000     25.0000   
 aic                                                              
 nf                  1.0000      1.0000      1.0000      1.0000   
 min                 0.          0.          0.          0.       
 rbdb               15.0000     15.0000     15.0000     15.0000   
 rbsb               15.0000     15.0000     15.0000     15.0000   
 rbpb                5.0000      5.0000      5.0000      5.0000   
 rbps               15.0000     15.0000     15.0000     15.0000   
 rbpd               15.0000     15.0000     15.0000     15.0000   
 trnqsmod            0.          0.          0.          0.       
 acnqsmod            0.          0.          0.          0.       
 rbodymod            1.0000      1.0000      1.0000      1.0000   
 rgatemod            1.0000      1.0000      1.0000      1.0000   
 geomod              0.          0.          0.          0.       
 rgeomod             0.          0.          0.          0.       
 delvto              0.          0.          0.          0.       
 mulu0               1.0000      1.0000      1.0000      1.0000   
 delk1               0.          0.          0.          0.       
 delnfct             0.          0.          0.          0.       
 deltox              0.          0.          0.          0.       
 sa                  0.          0.          0.          0.       
 sb                  0.          0.          0.          0.       
 sd                  0.          0.          0.          0.       
 saeff               0.          0.          0.          0.       
 sbeff               0.          0.          0.          0.       
  
  
                                                                
 element name       15:m1       15:m2       16:m1      16:m2    
 drain               0:b1wl0     0:b1wl0     0:b0wl0    0:b0wl0 
 gate                1:net029    1:net029    1:net9     1:net9  
 source              0:vdd!      0:0         0:vdd!     0:0     
 bulk                0:vdd!      0:0         0:vdd!     0:0     
 model               0:pmos      0:nmos      0:pmos     0:nmos  
 w eff             518.0000n   166.0000n   518.0000n  166.0000n 
 l eff              29.0000n    29.0000n    29.0000n   29.0000n 
 rd eff              0.          0.          0.         0.      
 rs eff              0.          0.          0.         0.      
 cdsat              44.0567a    15.1073a    44.0567a   15.1073a 
 cssat              44.0567a    15.1073a    44.0567a   15.1073a 
 capbd             582.4488a   223.4243a   582.4488a  223.4243a 
 capbs             477.0600a   188.2947a   477.0600a  188.2947a 
 temp               25.0000     25.0000     25.0000    25.0000  
 aic                                                            
 nf                  1.0000      1.0000      1.0000     1.0000  
 min                 0.          0.          0.         0.      
 rbdb               15.0000     15.0000     15.0000    15.0000  
 rbsb               15.0000     15.0000     15.0000    15.0000  
 rbpb                5.0000      5.0000      5.0000     5.0000  
 rbps               15.0000     15.0000     15.0000    15.0000  
 rbpd               15.0000     15.0000     15.0000    15.0000  
 trnqsmod            0.          0.          0.         0.      
 acnqsmod            0.          0.          0.         0.      
 rbodymod            1.0000      1.0000      1.0000     1.0000  
 rgatemod            1.0000      1.0000      1.0000     1.0000  
 geomod              0.          0.          0.         0.      
 rgeomod             0.          0.          0.         0.      
 delvto              0.          0.          0.         0.      
 mulu0               1.0000      1.0000      1.0000     1.0000  
 delk1               0.          0.          0.         0.      
 delnfct             0.          0.          0.         0.      
 deltox              0.          0.          0.         0.      
 sa                  0.          0.          0.         0.      
 sb                  0.          0.          0.         0.      
 sd                  0.          0.          0.         0.      
 saeff               0.          0.          0.         0.      
 sbeff               0.          0.          0.         0.      
  
  
                                                                 
 element name       17:m2       17:m0       17:m3      17:m1     
 drain               1:net053    1:net053   17:mid_a    1:net053 
 gate                0:net77     0:0         0:net77    0:0      
 source              0:vdd!      0:vdd!      0:0       17:mid_a  
 bulk                0:vdd!      0:vdd!      0:0        0:0      
 model               0:pmos      0:pmos      0:nmos     0:nmos   
 w eff             254.0000n   254.0000n   166.0000n  166.0000n  
 l eff              29.0000n    29.0000n    29.0000n   29.0000n  
 rd eff              0.          0.          0.         0.       
 rs eff              0.          0.          0.         0.       
 cdsat              22.3447a    22.3447a    15.1073a   15.1073a  
 cssat              22.3447a    22.3447a    15.1073a   15.1073a  
 capbd             313.1804a   313.1804a   223.4243a  223.4243a  
 capbs             260.4860a   260.4860a   188.2947a  188.2947a  
 temp               25.0000     25.0000     25.0000    25.0000   
 aic                                                             
 nf                  1.0000      1.0000      1.0000     1.0000   
 min                 0.          0.          0.         0.       
 rbdb               15.0000     15.0000     15.0000    15.0000   
 rbsb               15.0000     15.0000     15.0000    15.0000   
 rbpb                5.0000      5.0000      5.0000     5.0000   
 rbps               15.0000     15.0000     15.0000    15.0000   
 rbpd               15.0000     15.0000     15.0000    15.0000   
 trnqsmod            0.          0.          0.         0.       
 acnqsmod            0.          0.          0.         0.       
 rbodymod            1.0000      1.0000      1.0000     1.0000   
 rgatemod            1.0000      1.0000      1.0000     1.0000   
 geomod              0.          0.          0.         0.       
 rgeomod             0.          0.          0.         0.       
 delvto              0.          0.          0.         0.       
 mulu0               1.0000      1.0000      1.0000     1.0000   
 delk1               0.          0.          0.         0.       
 delnfct             0.          0.          0.         0.       
 deltox              0.          0.          0.         0.       
 sa                  0.          0.          0.         0.       
 sb                  0.          0.          0.         0.       
 sd                  0.          0.          0.         0.       
 saeff               0.          0.          0.         0.       
 sbeff               0.          0.          0.         0.       
  
  
                                                                 
 element name       18:m2       18:m0       18:m3      18:m1     
 drain               1:net055    1:net055   18:mid_a    1:net055 
 gate                0:net77     0:0         0:net77    0:0      
 source              0:vdd!      0:vdd!      0:0       18:mid_a  
 bulk                0:vdd!      0:vdd!      0:0        0:0      
 model               0:pmos      0:pmos      0:nmos     0:nmos   
 w eff             254.0000n   254.0000n   166.0000n  166.0000n  
 l eff              29.0000n    29.0000n    29.0000n   29.0000n  
 rd eff              0.          0.          0.         0.       
 rs eff              0.          0.          0.         0.       
 cdsat              22.3447a    22.3447a    15.1073a   15.1073a  
 cssat              22.3447a    22.3447a    15.1073a   15.1073a  
 capbd             313.1804a   313.1804a   223.4243a  223.4243a  
 capbs             260.4860a   260.4860a   188.2947a  188.2947a  
 temp               25.0000     25.0000     25.0000    25.0000   
 aic                                                             
 nf                  1.0000      1.0000      1.0000     1.0000   
 min                 0.          0.          0.         0.       
 rbdb               15.0000     15.0000     15.0000    15.0000   
 rbsb               15.0000     15.0000     15.0000    15.0000   
 rbpb                5.0000      5.0000      5.0000     5.0000   
 rbps               15.0000     15.0000     15.0000    15.0000   
 rbpd               15.0000     15.0000     15.0000    15.0000   
 trnqsmod            0.          0.          0.         0.       
 acnqsmod            0.          0.          0.         0.       
 rbodymod            1.0000      1.0000      1.0000     1.0000   
 rgatemod            1.0000      1.0000      1.0000     1.0000   
 geomod              0.          0.          0.         0.       
 rgeomod             0.          0.          0.         0.       
 delvto              0.          0.          0.         0.       
 mulu0               1.0000      1.0000      1.0000     1.0000   
 delk1               0.          0.          0.         0.       
 delnfct             0.          0.          0.         0.       
 deltox              0.          0.          0.         0.       
 sa                  0.          0.          0.         0.       
 sb                  0.          0.          0.         0.       
 sd                  0.          0.          0.         0.       
 saeff               0.          0.          0.         0.       
 sbeff               0.          0.          0.         0.       
  
  
                                                                 
 element name       19:m2       19:m0       19:m3      19:m1     
 drain               1:net057    1:net057   19:mid_a    1:net057 
 gate                0:net77     0:block3    0:net77    0:block3 
 source              0:vdd!      0:vdd!      0:0       19:mid_a  
 bulk                0:vdd!      0:vdd!      0:0        0:0      
 model               0:pmos      0:pmos      0:nmos     0:nmos   
 w eff             254.0000n   254.0000n   166.0000n  166.0000n  
 l eff              29.0000n    29.0000n    29.0000n   29.0000n  
 rd eff              0.          0.          0.         0.       
 rs eff              0.          0.          0.         0.       
 cdsat              22.3447a    22.3447a    15.1073a   15.1073a  
 cssat              22.3447a    22.3447a    15.1073a   15.1073a  
 capbd             313.1804a   313.1804a   223.4243a  223.4243a  
 capbs             260.4860a   260.4860a   188.2947a  188.2947a  
 temp               25.0000     25.0000     25.0000    25.0000   
 aic                                                             
 nf                  1.0000      1.0000      1.0000     1.0000   
 min                 0.          0.          0.         0.       
 rbdb               15.0000     15.0000     15.0000    15.0000   
 rbsb               15.0000     15.0000     15.0000    15.0000   
 rbpb                5.0000      5.0000      5.0000     5.0000   
 rbps               15.0000     15.0000     15.0000    15.0000   
 rbpd               15.0000     15.0000     15.0000    15.0000   
 trnqsmod            0.          0.          0.         0.       
 acnqsmod            0.          0.          0.         0.       
[...]
  cgtot      468.6349a    321.7952a    468.6345a    321.7952a    468.6349a
  cstot      765.3125a    316.6875a    765.3120a    316.6876a    765.3125a
  cbtot        1.1352f    485.6762a      1.1352f    485.6762a      1.1352f
  cgs        233.0790a    175.4780a    233.0786a    175.4780a    233.0790a
  cgd        149.4580a    148.8145a    149.4580a    148.8145a    149.4580a



 subckt     xdecoder.x   xdecoder.x   xdecoder.x   xdecoder.x   xdecoder.x
 element  108:m2       109:m10      109:m9       109:m1       109:m7      
 model      0:nmos       0:nmos       0:nmos       0:nmos       0:pmos    
 region         Linear       Cutoff       Linear       Cutoff       Linear
  id          17.1854n    801.4139p    456.8261p    112.2374p     -1.1856n
  ibs        1.154e-24    9.921e-26   -105.7641f   -105.7652f   -5.835e-25
  ibd        -21.0431a   -105.7641f   -105.7652f     -1.0000p      6.7377a
  vgs        999.9933m     18.9202u    894.2492m   -105.7330m   -999.9811m
  vds         21.0239u    105.7508m      1.1043u    894.2413m     -6.7329u
  vbs          0.           0.        -105.7508m   -105.7519m      0.     
  vth        370.5942m    363.3809m    395.4731m    334.4706m   -310.7628m
  vdsat      337.5729m     40.1909m    280.5649m     40.0424m   -503.9527m
  vod        629.3990m   -363.3620m    498.7760m   -440.2036m   -689.2183m
  beta         4.0798m      2.8312m      2.2448m      2.9349m    317.5725u
  gam eff    441.0000m    441.0000m    441.0000m    441.0000m    394.0000m
  gm           6.6475n     20.4844n    288.5936p      2.9465n      1.0060n
  gds        817.4019u      2.0281n    413.6738u    219.8557p    176.0954u
  gmb          3.5007n      6.0417n    122.3076p    846.8476p    405.0506p
  cdtot      479.6515a    186.9737a    271.7384a    149.9389a    378.1361a
  cgtot      321.7952a     93.2690a    170.2722a     78.9704a    254.9589a
  cstot      316.6875a    174.4336a    188.8754a    165.6914a    257.9504a
  cbtot      485.6762a    303.2542a    298.0448a    271.7760a    393.4431a
  cgs        175.4780a     40.0143a     93.0748a     35.6977a    143.0528a
  cgd        148.8145a     35.6971a     77.6354a     25.7150a    112.5627a



 subckt     xdecoder.x   xdecoder.x   xdecoder.x   xdecoder.x   xdecoder.x
 element  109:m6       109:m0       110:m10      110:m9       110:m1      
 model      0:pmos       0:pmos       0:nmos       0:nmos       0:nmos    
 region         Cutoff       Linear       Cutoff       Cutoff       Cutoff
  id         -74.4085f     -1.1856n    366.5525p    366.5834p    366.6396p
  ibs          0.        -5.835e-25    1.689e-26    -18.0090f    -72.5012f
  ibd          6.7377a      6.7377a    -18.0090f    -72.5012f     -1.0000p
  vgs          0.        -999.9811m     18.9202u    -18.0023m    -72.4696m
  vds         -6.7329u     -6.7329u     18.0023m     54.4863m    927.5065m
  vbs          0.           0.           0.         -18.0023m    -72.4886m
  vth       -310.7628m   -310.7628m    369.3675m    371.2105m    324.5199m
  vdsat      -46.2174m   -503.9527m     40.2303m     40.2520m     39.9627m
  vod        310.7628m   -689.2183m   -369.3486m   -389.2128m   -396.9896m
  beta       367.4760u    317.5725u      2.8100m      2.8035m      2.9711m
  gam eff    394.0000m    394.0000m    441.0000m    441.0000m    441.0000m
  gm           1.9542p      1.0060n      9.3772n      9.4361n      9.5370n
  gds         11.0508n    176.0954u     15.0891n      2.2131n    711.7076p
  gmb        468.9420f    405.0506p      2.7875n      2.7945n      2.7321n
  cdtot      258.8314a    378.1361a    194.7703a    189.8398a    149.9389a
  cgtot      136.6816a    254.9589a     96.8476a     93.8525a     80.2929a
  cstot      228.0318a    257.9504a    174.4335a    172.8988a    168.3430a
  cbtot      393.7698a    393.4431a    307.4722a    304.0025a    273.1049a
  cgs         57.4452a    143.0528a     40.0142a     39.2759a     37.0203a
  cgd         57.4429a    112.5627a     39.2758a     37.0188a     25.7149a



 subckt     xdecoder.x   xdecoder.x   xdecoder.x   xdecoder.x   xdecoder.x
 element  110:m7       110:m6       110:m0       111:m10      111:m9      
 model      0:pmos       0:pmos       0:pmos       0:nmos       0:nmos    
 region         Linear       Linear       Linear       Cutoff       Linear
  id        -874.1413p   -874.1554p   -874.1413p    801.4139p    456.8261p
  ibs       -5.835e-25   -5.837e-25   -5.835e-25    9.921e-26   -105.7641f
  ibd          4.9675a      4.9675a      4.9675a   -105.7641f   -105.7652f
  vgs       -999.9811m     -1.0000    -999.9811m     18.9202u    894.2492m
  vds         -4.9640u     -4.9640u     -4.9640u    105.7508m      1.1043u
  vbs          0.           0.           0.           0.        -105.7508m
  vth       -310.7630m   -310.7630m   -310.7630m    363.3809m    395.4731m
  vdsat     -503.9527m   -503.9637m   -503.9527m     40.1909m    280.5649m
  vod       -689.2181m   -689.2370m   -689.2181m   -363.3620m    498.7760m
  beta       317.5725u    317.5699u    317.5725u      2.8312m      2.2448m
  gam eff    394.0000m    394.0000m    394.0000m    441.0000m    441.0000m
  gm         741.7325p    741.7125p    741.7325p     20.4844n    288.5936p
  gds        176.0960u    176.0988u    176.0960u      2.0281n    413.6738u
  gmb        298.6349p    298.6319p    298.6349p      6.0417n    122.3076p
  cdtot      378.1367a    378.1372a    378.1367a    186.9737a    271.7384a
  cgtot      254.9590a    254.9593a    254.9590a     93.2690a    170.2722a
  cstot      257.9501a    257.9500a    257.9501a    174.4336a    188.8754a
  cbtot      393.4433a    393.4433a    393.4433a    303.2542a    298.0448a
  cgs        143.0526a    143.0528a    143.0526a     40.0143a     93.0748a
  cgd        112.5629a    112.5631a    112.5629a     35.6971a     77.6354a



 subckt     xdecoder.x   xdecoder.x   xdecoder.x   xdecoder.x   xdecoder.x
 element  111:m1       111:m7       111:m6       111:m0       112:m10     
 model      0:nmos       0:pmos       0:pmos       0:pmos       0:nmos    
 region         Cutoff       Linear       Cutoff       Linear       Cutoff
  id         112.2374p     -1.1856n    -74.4085f     -1.1856n    366.5525p
  ibs       -105.7652f   -5.835e-25      0.        -5.835e-25    1.689e-26
  ibd         -1.0000p      6.7377a      6.7377a      6.7377a    -18.0090f
  vgs       -105.7330m   -999.9811m      0.        -999.9811m     18.9202u
  vds        894.2413m     -6.7329u     -6.7329u     -6.7329u     18.0023m
  vbs       -105.7519m      0.           0.           0.           0.     
  vth        334.4706m   -310.7628m   -310.7628m   -310.7628m    369.3675m
  vdsat       40.0424m   -503.9527m    -46.2174m   -503.9527m     40.2303m
  vod       -440.2036m   -689.2183m    310.7628m   -689.2183m   -369.3486m
  beta         2.9349m    317.5725u    367.4760u    317.5725u      2.8100m
  gam eff    441.0000m    394.0000m    394.0000m    394.0000m    441.0000m
  gm           2.9465n      1.0060n      1.9542p      1.0060n      9.3772n
  gds        219.8557p    176.0954u     11.0508n    176.0954u     15.0891n
  gmb        846.8476p    405.0506p    468.9420f    405.0506p      2.7875n
  cdtot      149.9389a    378.1361a    258.8314a    378.1361a    194.7703a
  cgtot       78.9704a    254.9589a    136.6816a    254.9589a     96.8476a
  cstot      165.6914a    257.9504a    228.0318a    257.9504a    174.4335a
  cbtot      271.7760a    393.4431a    393.7698a    393.4431a    307.4722a
  cgs         35.6977a    143.0528a     57.4452a    143.0528a     40.0142a
  cgd         25.7150a    112.5627a     57.4429a    112.5627a     39.2758a



 subckt     xdecoder.x   xdecoder.x   xdecoder.x   xdecoder.x   xdecoder.x
 element  112:m9       112:m1       112:m7       112:m6       112:m0      
 model      0:nmos       0:nmos       0:pmos       0:pmos       0:pmos    
 region         Cutoff       Cutoff       Linear       Linear       Linear
  id         366.5834p    366.6396p   -874.1413p   -874.1554p   -874.1413p
  ibs        -18.0090f    -72.5012f   -5.835e-25   -5.837e-25   -5.835e-25
  ibd        -72.5012f     -1.0000p      4.9675a      4.9675a      4.9675a
  vgs        -18.0023m    -72.4696m   -999.9811m     -1.0000    -999.9811m
  vds         54.4863m    927.5065m     -4.9640u     -4.9640u     -4.9640u
  vbs        -18.0023m    -72.4886m      0.           0.           0.     
  vth        371.2105m    324.5199m   -310.7630m   -310.7630m   -310.7630m
  vdsat       40.2520m     39.9627m   -503.9527m   -503.9637m   -503.9527m
  vod       -389.2128m   -396.9896m   -689.2181m   -689.2370m   -689.2181m
  beta         2.8035m      2.9711m    317.5725u    317.5699u    317.5725u
  gam eff    441.0000m    441.0000m    394.0000m    394.0000m    394.0000m
  gm           9.4361n      9.5370n    741.7325p    741.7125p    741.7325p
  gds          2.2131n    711.7076p    176.0960u    176.0988u    176.0960u
  gmb          2.7945n      2.7321n    298.6349p    298.6319p    298.6349p
  cdtot      189.8398a    149.9389a    378.1367a    378.1372a    378.1367a
  cgtot       93.8525a     80.2929a    254.9590a    254.9593a    254.9590a
  cstot      172.8988a    168.3430a    257.9501a    257.9500a    257.9501a
  cbtot      304.0025a    273.1049a    393.4433a    393.4433a    393.4433a
  cgs         39.2759a     37.0203a    143.0526a    143.0528a    143.0526a
  cgd         37.0188a     25.7149a    112.5629a    112.5631a    112.5629a



 subckt     xclk_gen.x   xclk_gen.x   xclk_gen.x   xclk_gen.x   xclk_gen.x
 element  116:m_0      116:m_1      117:m_0      117:m_1      118:m_0     
 model      0:nmos       0:pmos       0:nmos       0:pmos       0:nmos    
 region         Cutoff       Linear       Linear       Cutoff       Cutoff
  id           7.6210n    -16.0612n     54.8624n    -57.2547n    121.9947n
  ibs        9.392e-25   -2.103e-24    4.072e-24   -3.765e-24    1.503e-23
  ibd       -999.9954f     25.6407a    -75.7425a      4.0002p    -15.9999p
  vgs          0.          -1.0000     999.9744m    -25.5802u     18.9202u
  vds        999.9744m    -25.5802u     18.9202u   -999.9811m    999.9744m
  vbs          0.           0.           0.           0.           0.     
  vth        302.3784m   -310.7612m    370.5944m   -225.6986m    302.3784m
  vdsat       39.8318m   -504.5937m    337.0862m    -46.2016m     39.8318m
  vod       -302.3784m   -689.2388m    629.3800m    225.6730m   -302.3595m
  beta         5.0666m      1.1424m     14.4096m      6.0227m     81.0664m
  gam eff    441.0000m    394.0000m    441.0000m    394.0000m    441.0000m
  gm         191.9183n     13.5110n     21.3085n      1.4521u      3.0721u
  gds         14.3449n    627.8611u      2.8996m    139.2593n    229.6257n
  gmb         54.4515n      5.4389n     11.2233n    326.1537n    871.6237n
  cdtot      220.4434a      1.2194f      1.7195f      2.3833f      3.5271f
  cgtot      137.7687a    915.2162a      1.1369f      1.6630f      2.2043f
  cstot      255.0966a    792.2893a      1.1430f      2.7389f      4.0816f
  cbtot      395.0850a      1.1369f      1.7655f      4.0710f      6.3214f
  cgs         66.4274a    514.6013a    619.7720a    826.9676a      1.0629f
  cgd         42.6865a    404.9048a    525.6006a    530.2694a    682.9857a



 subckt     xclk_gen.x   xclk_gen.x   xclk_gen.x   xa0_gen.xg   xa0_gen.xg
 element  118:m_1      119:m_0      119:m_1      120:m_0      120:m_1     
 model      0:pmos       0:nmos       0:pmos       0:nmos       0:pmos    
 region         Linear       Linear       Cutoff       Cutoff       Linear
  id        -257.0380n    986.5605n   -916.0696n      7.6210n    -16.0612n
  ibs       -3.364e-23    6.516e-23   -6.024e-23    9.392e-25   -2.103e-24
  ibd        410.3531a     -1.3620f     64.0026p   -999.9954f     25.6407a
  vgs       -999.9811m    999.9744m    -25.5865u      0.          -1.0000 
  vds        -25.5865u     21.2646u   -999.9787m    999.9744m    -25.5802u
  vbs          0.           0.           0.           0.           0.     
  vth       -310.7612m    370.5942m   -225.6988m    302.3784m   -310.7612m
  vdsat     -504.5826m    337.0863m    -46.2016m     39.8318m   -504.5937m
  vod       -689.2199m    629.3802m    225.6732m   -302.3784m   -689.2388m
  beta        18.2781m    230.5529m     96.3633m      5.0666m      1.1424m
  gam eff    394.0000m    441.0000m    394.0000m    441.0000m    394.0000m
  gm         216.2348n    383.1837n     23.2334u    191.9183n     13.5110n
  gds         10.0456m     46.3934m      2.2281u     14.3449n    627.8611u
  gmb         87.0444n    201.8231n      5.2184u     54.4515n      5.4389n
  cdtot       19.5104f     27.5114f     38.1333f    220.4434a      1.2194f
  cgtot       14.6434f     18.1904f     26.6086f    137.7687a    915.2162a
  cstot       12.6766f     18.2873f     43.8225f    255.0966a    792.2893a
  cbtot       18.1907f     28.2486f     65.1361f    395.0850a      1.1369f
  cgs          8.2336f      9.9164f     13.2315f     66.4274a    514.6013a
  cgd          6.4785f      8.4096f      8.4843f     42.6865a    404.9048a



 subckt     xa0_gen.xg   xa0_gen.xg   xa0_gen.xg   xa0_gen.xg   xa0_gen.xg
 element  121:m_0      121:m_1      122:m_0      122:m_1      123:m_0     
 model      0:nmos       0:pmos       0:nmos       0:pmos       0:nmos    
 region         Linear       Cutoff       Cutoff       Linear       Linear
  id          54.8624n    -57.2547n    121.9947n   -257.0380n    986.5605n
  ibs        4.072e-24   -3.765e-24    1.503e-23   -3.364e-23    6.516e-23
  ibd        -75.7425a      4.0002p    -15.9999p    410.3531a     -1.3620f
  vgs        999.9744m    -25.5802u     18.9202u   -999.9811m    999.9744m
  vds         18.9202u   -999.9811m    999.9744m    -25.5865u     21.2646u
  vbs          0.           0.           0.           0.           0.     
  vth        370.5944m   -225.6986m    302.3784m   -310.7612m    370.5942m
  vdsat      337.0862m    -46.2016m     39.8318m   -504.5826m    337.0863m
  vod        629.3800m    225.6730m   -302.3595m   -689.2199m    629.3802m
  beta        14.4096m      6.0227m     81.0664m     18.2781m    230.5529m
  gam eff    441.0000m    394.0000m    441.0000m    394.0000m    441.0000m
  gm          21.3085n      1.4521u      3.0721u    216.2348n    383.1837n
  gds          2.8996m    139.2593n    229.6257n     10.0456m     46.3934m
  gmb         11.2233n    326.1537n    871.6237n     87.0444n    201.8231n
  cdtot        1.7195f      2.3833f      3.5271f     19.5104f     27.5114f
  cgtot        1.1369f      1.6630f      2.2043f     14.6434f     18.1904f
  cstot        1.1430f      2.7389f      4.0816f     12.6766f     18.2873f
  cbtot        1.7655f      4.0710f      6.3214f     18.1907f     28.2486f
  cgs        619.7720a    826.9676a      1.0629f      8.2336f      9.9164f
  cgd        525.6006a    530.2694a    682.9857a      6.4785f      8.4096f



 subckt     xa0_gen.xg   xa255_gen.   xa255_gen.   xa255_gen.   xa255_gen.
 element  123:m_1      124:m_0      124:m_1      125:m_0      125:m_1     
 model      0:pmos       0:nmos       0:pmos       0:nmos       0:pmos    
 region         Cutoff       Cutoff       Linear       Linear       Cutoff
  id        -916.0696n      7.6210n    -16.0612n     54.8624n    -57.2547n
  ibs       -6.024e-23    9.392e-25   -2.103e-24    4.072e-24   -3.765e-24
  ibd         64.0026p   -999.9954f     25.6407a    -75.7425a      4.0002p
  vgs        -25.5865u      0.          -1.0000     999.9744m    -25.5802u
  vds       -999.9787m    999.9744m    -25.5802u     18.9202u   -999.9811m
  vbs          0.           0.           0.           0.           0.     
  vth       -225.6988m    302.3784m   -310.7612m    370.5944m   -225.6986m
  vdsat      -46.2016m     39.8318m   -504.5937m    337.0862m    -46.2016m
  vod        225.6732m   -302.3784m   -689.2388m    629.3800m    225.6730m
  beta        96.3633m      5.0666m      1.1424m     14.4096m      6.0227m
  gam eff    394.0000m    441.0000m    394.0000m    441.0000m    394.0000m
  gm          23.2334u    191.9183n     13.5110n     21.3085n      1.4521u
  gds          2.2281u     14.3449n    627.8611u      2.8996m    139.2593n
  gmb          5.2184u     54.4515n      5.4389n     11.2233n    326.1537n
  cdtot       38.1333f    220.4434a      1.2194f      1.7195f      2.3833f
  cgtot       26.6086f    137.7687a    915.2162a      1.1369f      1.6630f
  cstot       43.8225f    255.0966a    792.2893a      1.1430f      2.7389f
  cbtot       65.1361f    395.0850a      1.1369f      1.7655f      4.0710f
  cgs         13.2315f     66.4274a    514.6013a    619.7720a    826.9676a
  cgd          8.4843f     42.6865a    404.9048a    525.6006a    530.2694a



 subckt     xa255_gen.   xa255_gen.   xa255_gen.   xa255_gen.
 element  126:m_0      126:m_1      127:m_0      127:m_1     
 model      0:nmos       0:pmos       0:nmos       0:pmos    
 region         Cutoff       Linear       Linear       Cutoff
  id         121.9947n   -257.0380n    986.5605n   -916.0696n
  ibs        1.503e-23   -3.364e-23    6.516e-23   -6.024e-23
  ibd        -15.9999p    410.3531a     -1.3620f     64.0026p
  vgs         18.9202u   -999.9811m    999.9744m    -25.5865u
  vds        999.9744m    -25.5865u     21.2646u   -999.9787m
  vbs          0.           0.           0.           0.     
  vth        302.3784m   -310.7612m    370.5942m   -225.6988m
  vdsat       39.8318m   -504.5826m    337.0863m    -46.2016m
  vod       -302.3595m   -689.2199m    629.3802m    225.6732m
  beta        81.0664m     18.2781m    230.5529m     96.3633m
  gam eff    441.0000m    394.0000m    441.0000m    394.0000m
  gm           3.0721u    216.2348n    383.1837n     23.2334u
  gds        229.6257n     10.0456m     46.3934m      2.2281u
  gmb        871.6237n     87.0444n    201.8231n      5.2184u
  cdtot        3.5271f     19.5104f     27.5114f     38.1333f
  cgtot        2.2043f     14.6434f     18.1904f     26.6086f
  cstot        4.0816f     12.6766f     18.2873f     43.8225f
  cbtot        6.3214f     18.1907f     28.2486f     65.1361f
  cgs          1.0629f      8.2336f      9.9164f     13.2315f
  cgd        682.9857a      6.4785f      8.4096f      8.4843f




          ***** job concluded
1****** HSPICE -- F-2011.09-SP2 32-BIT (Feb 27 2012) linux ******               
 ******  
 part 2

  ******  job statistics summary tnom=  25.000 temp=  27.000 *****
  
  
 ******  Machine Information  ******
 CPU:
 model name	: Quad-Core AMD Opteron(tm) Processor 2384
 cpu MHz	: 2700.000
  
 OS:
 Linux version 3.2.0-33-generic (buildd@batsu) (gcc version 4.6.3 (Ubuntu/Linaro
  4.6.3-1ubuntu5) ) #52-Ubuntu SMP Thu Oct 18 16:29:15 UTC 2012


  ******  HSPICE Threads Information  ******

  Command Line Threads Count :     1
  Available CPU Count        :     8
  Actual Threads Count       :     1


  ******  Circuit Statistics  ******
  # nodes       =    1781 # elements   =     491
  # resistors   =       1 # capacitors =      54 # inductors   =       0
  # mutual_inds =       0 # vccs       =       0 # vcvs        =       3
  # cccs        =       6 # ccvs       =       0 # volt_srcs   =      33
  # curr_srcs   =       0 # diodes     =       0 # bjts        =       0
  # jfets       =       0 # mosfets    =     394 # U elements  =       0
  # T elements  =       0 # W elements =       0 # B elements  =       0
  # S elements  =       0 # P elements =       0 # va device   =       0
  # vector_srcs =       0


  ******  Runtime Statistics (seconds)  ******

  analysis           time    # points   tot. iter  conv.iter
  op point           0.78           1         388
  transient         20.34       33334       29824        4938 rev=       745
  readin             0.02
  errchk             0.08
  setup              0.00
  output             0.00


           peak memory used         93.11 megabytes
           total cpu time           21.24 seconds
           total elapsed time       22.28 seconds
           job started at     08:33:49 03/10/2013
           job ended   at     08:34:11 03/10/2013


 lic: Release hspice token(s) 
